91
M00000370_2D_DFT last geometry from G09 out file
 Ru        0.2159970       -0.0717030       -0.3654240
 C       -1.3065140       -0.8522680       -0.9645590
 Cl        0.0275520       -0.6124720        1.9816750
 Cl        1.3140930       -0.1346940       -2.5544690
 H       -2.2220490       -0.4031690       -1.3512080
 H       -1.2517590       -1.9635870       -0.9814740
 C       -0.0665000        1.8673460       -0.2972560
 N        0.9504880        2.6948200        0.1974220
 N       -1.0917990        2.6592550       -0.7926340
 C        0.7115090        4.1633640       -0.1583710
 C        1.9050790        2.3068520        1.2677940
 C       -0.7438480        4.1540310       -0.7885910
 H        0.7029140        4.7289940        0.7825980
 H       -0.6572350        4.4486920       -1.8412800
 C        1.5374140        2.5782350        2.6262790
 C        3.1855960        1.7128040        1.0036790
 C        2.4627470        2.3380950        3.6646840
 C        3.7470910        1.8145990        3.4247890
 H        2.1515050        2.5433950        4.6910340
 C        4.0651730        1.4946420        2.0924910
 H        5.0387450        1.0531230        1.8846460
 C       -2.2763720        2.1499950       -1.4882410
 C       -2.3186560        2.1850720       -2.9177830
 C       -3.4056930        1.6527790       -0.7539640
 C       -3.5076140        1.7994670       -3.5794590
 C       -4.6587720        1.3785940       -2.8824860
 H       -3.5236600        1.8246250       -4.6707670
 C       -4.5705170        1.2987080       -1.4771730
 H       -5.4364980        0.9401230       -0.9211230
 C       -1.1378720        2.5960400       -3.7808800
 H       -1.2327340        2.1550950       -4.7819700
 H       -0.1873390        2.2550390       -3.3646420
 H       -1.0901490        3.6888100       -3.9180110
 C       -3.4383480        1.4859270        0.7699530
 C       -4.0237420        0.1526710        1.3029390
 H       -4.0464630        2.3029550        1.1948520
 H       -2.4308020        1.5897610        1.1794700
 H       -3.9674610        0.1493090        2.4021340
 H       -3.4516950       -0.7123440        0.9450860
 H       -5.0783840        0.0101300        1.0272580
 C        1.8762610        4.8103190       -1.0633740
 C        3.1584880        4.9925310       -0.1919750
 C        2.1853090        3.9719450       -2.3354790
 C        1.5284160        6.2448900       -1.5690230
 H        2.9425030        5.5911700        0.7071100
 H        3.9222640        5.5336110       -0.7705900
 H        3.5972390        4.0508320        0.1358670
 H        3.1318890        4.3139230       -2.7800180
 H        1.4083540        4.1036620       -3.0996930
 H        2.2758980        2.9057030       -2.1334330
 H        2.3662820        6.5960940       -2.1898030
 H        1.4061970        6.9660480       -0.7519530
 H        0.6332040        6.2714400       -2.2008600
 C       -5.9466440        1.0266230       -3.6173720
 C       -6.8909460        2.2442300       -3.8174260
 H       -6.4905340        0.2455470       -3.0623120
 H       -5.7058050        0.6012480       -4.6048500
 H       -7.8048540        1.9402890       -4.3516100
 H       -6.4006030        3.0353160       -4.4045170
 H       -7.1898170        2.6786950       -2.8515180
 C       -1.8528370        5.1565060       -0.1822470
 C       -2.2897090        4.8481650        1.2743110
 C       -1.3333490        6.6282660       -0.1635440
 C       -3.1142990        5.1796350       -1.1055550
 H       -1.5176450        5.1368170        1.9963440
 H       -2.5288740        3.7982220        1.4311150
 H       -3.1887130        5.4361320        1.5133200
 H       -2.1128050        7.2590460        0.2891280
 H       -1.1406570        7.0224390       -1.1681350
 H       -0.4289360        6.7515900        0.4430460
 H       -3.7155680        4.2707900       -1.0354860
 H       -2.8409620        5.3256910       -2.1612870
 H       -3.7573830        6.0242170       -0.8152270
 C        0.1707030        3.0812610        3.0483410
 H       -0.0935720        2.6606820        4.0275820
 H       -0.6102880        2.7909820        2.3471130
 H        0.1555590        4.1773370        3.1534760
 C        3.7032790        1.3181620       -0.3815400
 C        4.4451790       -0.0406990       -0.4614260
 H        4.3939770        2.1009130       -0.7406590
 H        2.8833110        1.2849880       -1.0979740
 H        3.8395210       -0.8554910       -0.0403320
 H        5.4128580       -0.0304270        0.0606720
 H        4.6406320       -0.2821010       -1.5164350
 C        4.7447730        1.6000210        4.5560030
 C        5.6250110        2.8473900        4.8444180
 H        5.4030920        0.7506950        4.3135430
 H        4.2062500        1.3268990        5.4777950
 H        6.3283990        2.6427790        5.6670440
 H        5.0077270        3.7120870        5.1317210
 H        6.2114980        3.1331810        3.9580890
