109
M00000306_2D_DFT last geometry from G09 out file
 Ru        0.3046460        0.1999150       -0.6166580
 C       -1.2742530       -0.6294170       -0.9414950
 Cl        0.5824870       -0.3731050        1.7140770
 Cl        1.0114230        0.3029180       -2.9456410
 H       -2.2680340       -0.2064050       -1.0942920
 H       -1.1828920       -1.7338000       -1.0417330
 C       -0.0429170        2.1089820       -0.4526310
 N        1.0386390        2.9762800       -0.2418410
 N       -1.1907400        2.8650950       -0.6182940
 C        0.6497770        4.4259640       -0.5035820
 C        2.1444510        2.6833190        0.6945780
 C       -0.9202660        4.3681980       -0.5723330
 H        0.9658250        5.0024530        0.3740270
 H       -1.2543820        4.7666090       -1.5385620
 C        1.8869950        2.9850880        2.0535580
 C        3.4336420        2.1855710        0.3388940
 C        2.8604190        2.8516210        3.0536270
 C        4.1629250        2.4011870        2.7330240
 H        2.5840980        3.0885580        4.0783660
 C        4.3966360        2.0797720        1.3771050
 H        5.3844870        1.7237490        1.0884050
 C       -2.4383240        2.3729520       -1.1984510
 C       -2.6113860        2.5326130       -2.5895460
 C       -3.4844930        1.7815520       -0.4243020
 C       -3.8074070        2.1662670       -3.2329230
 C       -4.8844750        1.6185780       -2.4971650
 H       -3.8774180        2.3054790       -4.3089630
 C       -4.6775330        1.4363260       -1.1057660
 H       -5.4771300        0.9958630       -0.5151020
 H       -1.7885710        2.9263730       -3.1832910
 C       -3.3556500        1.5165740        1.0795850
 C       -4.0406990        0.2357040        1.6275380
 H       -2.2934030        1.4685240        1.3420790
 H       -3.7729090        2.3768770        1.6311640
 C       -3.7151850       -0.0040350        3.1226760
 H       -5.1357960        0.3017510        1.5146120
 H       -3.7141360       -0.6412400        1.0456900
 C       -4.3989670       -1.2634380        3.6988820
 H       -4.0257130        0.8787940        3.7104130
 H       -2.6234130       -0.0955090        3.2440720
 H       -4.1439080       -1.4002720        4.7615050
 H       -4.0782890       -2.1699530        3.1610960
 H       -5.4968130       -1.1977170        3.6235760
 C        1.3807780        5.0828000       -1.7661810
 C        2.8940820        5.2666790       -1.4447220
 C        1.2128390        4.2361030       -3.0567970
 C        0.8301550        6.5127530       -2.0601270
 H        3.3828560        5.8174580       -2.2624690
 H        3.4150180        4.3166180       -1.3309530
 H        3.0401000        5.8479120       -0.5206820
 H        0.1733410        4.2412630       -3.4154130
 H        1.5130870        3.1946270       -2.9183040
 H        1.8297370        4.6636850       -3.8615780
 H        0.9864650        7.2005260       -1.2188230
 H       -0.2359700        6.5191160       -2.3209020
 H        1.3729470        6.9236180       -2.9243320
 C       -6.2341160        1.2060870       -3.1485920
 C       -6.4682610       -0.3254160       -2.9398730
 C       -7.4005530        2.0062140       -2.4834600
 C       -6.2686970        1.4912030       -4.6768140
 H       -5.6614160       -0.9121740       -3.4040330
 H       -7.4205140       -0.6313020       -3.3997470
 H       -6.5103690       -0.5949700       -1.8755090
 H       -7.4697520        1.8139730       -1.4038660
 H       -8.3632670        1.7219470       -2.9353350
 H       -7.2640850        3.0890770       -2.6240950
 H       -6.1341050        2.5603490       -4.8985560
 H       -7.2441790        1.1899510       -5.0858270
 H       -5.4964060        0.9252180       -5.2181950
 C       -1.7291310        5.1956830        0.5355220
 C       -1.5362730        4.6477920        1.9767760
 C       -1.2718830        6.6884570        0.5456560
 C       -3.2476020        5.2289280        0.1748570
 H       -2.2797210        5.1029640        2.6482020
 H       -0.5472830        4.9095710        2.3754600
 H       -1.6551980        3.5626030        2.0316920
 H       -1.8389830        7.2217830        1.3231120
 H       -1.4728230        7.1908640       -0.4091390
 H       -0.2080480        6.8087860        0.7842850
 H       -3.7662240        5.9365390        0.8392390
 H       -3.7365220        4.2592960        0.2810330
 H       -3.4054510        5.5720140       -0.8591260
 H        0.8899740        3.3052820        2.3376480
 C        3.8833320        1.7716840       -1.0637100
 C        4.3816680        0.3012180       -1.1807750
 H        3.0799090        1.9213480       -1.7897910
 H        4.7185460        2.4275980       -1.3677970
 C        4.9865350       -0.0121010       -2.5698260
 H        5.1390090        0.0936110       -0.4078470
 H        3.5435900       -0.3847830       -0.9868640
 C        5.4530650       -1.4781390       -2.7096810
 H        5.8429760        0.6620640       -2.7548860
 H        4.2384330        0.2048930       -3.3483790
 H        4.6094710       -2.1740010       -2.5770260
 H        6.2191060       -1.7314040       -1.9584420
 H        5.8856660       -1.6640540       -3.7056840
 C        5.2909640        2.2370630        3.7889270
 C        5.7392680        0.7404530        3.8397810
 C        6.5101570        3.1336610        3.3990750
 C        4.8319380        2.6475550        5.2169010
 H        4.8939320        0.0875130        4.1024670
 H        6.5281310        0.6037930        4.5956960
 H        6.1375850        0.3980320        2.8748280
 H        6.2231000        4.1957190        3.3683030
 H        6.9184600        2.8677690        2.4142540
 H        7.3187760        3.0196230        4.1375510
 H        5.6657440        2.5207820        5.9230470
 H        3.9997740        2.0235470        5.5745380
 H        4.5190750        3.7015630        5.2611310
