91
M00000317_2D_DFT last geometry from G09 out file
 Ru        0.0211620        0.2143660       -0.4136090
 C       -1.5432100       -0.5206070       -0.9588000
 Cl       -0.1344730       -0.4138280        1.9256630
 Cl        1.0092910        0.2750400       -2.6452290
 H       -2.4819560       -0.0733330       -1.2854370
 H       -1.4929580       -1.6324550       -0.9978050
 C       -0.1555390        2.1699380       -0.3201320
 N        0.9198230        2.9172000        0.1683680
 N       -1.1148630        3.0369320       -0.8077310
 C        0.7741480        4.4140380       -0.1333710
 C        1.8390980        2.3898850        1.1970020
 C       -0.6828800        4.5126800       -0.7758620
 H        0.7816770        4.9429080        0.8265800
 H       -0.5678880        4.8063680       -1.8260070
 C        1.5580220        2.6779770        2.5716760
 C        2.9632400        1.5443890        0.9105430
 C        2.4274340        2.2072150        3.5817100
 C        3.5430780        1.3939060        3.3143780
 H        2.1839380        2.4489240        4.6180680
 C        3.7647110        1.0486990        1.9700430
 H        4.5856450        0.3792570        1.7203090
 C       -2.3232270        2.5869800       -1.4803580
 C       -2.4295970        2.6725530       -2.9010160
 C       -3.4241230        2.0449720       -0.7392060
 C       -3.6434430        2.2893280       -3.5228920
 C       -4.7520750        1.7943680       -2.8063300
 H       -3.7098880        2.3722330       -4.6095720
 C       -4.6083700        1.6595360       -1.4102090
 H       -5.4245720        1.2475260       -0.8202090
 C       -1.2957960        3.1396500       -3.7961240
 H       -1.2755960        4.2375090       -3.8913430
 H       -1.4229400        2.7336470       -4.8082090
 H       -0.3229450        2.8041120       -3.4293800
 C       -3.4004100        1.8566160        0.7536740
 O       -4.1079730        0.7084280        1.1164220
 O       -2.8663640        2.6035310        1.5993010
 C       -4.1247230        0.3734880        2.5621770
 H       -3.0992460        0.2062690        2.9124290
 H       -4.5943620        1.1830070        3.1380160
 H       -4.7163030       -0.5464320        2.6213030
 C        1.9929180        5.0216820       -0.9818860
 C        3.3080070        4.9077220       -0.1479020
 C        2.1564000        4.3441120       -2.3696340
 C        1.8203350        6.5495930       -1.2360740
 H        4.0966810        5.4983070       -0.6372810
 H        3.6765220        3.8871990       -0.0795140
 H        3.1756250        5.3134810        0.8678270
 H        1.3646570        4.6604160       -3.0639520
 H        2.1614760        3.2558070       -2.3069310
 H        3.1155220        4.6457120       -2.8147630
 H        2.7258950        6.9124660       -1.7440790
 H        1.7220280        7.1220040       -0.3019620
 H        0.9754930        6.7832380       -1.8896760
 C       -6.0301880        1.3625720       -3.5138520
 C       -6.0304170       -0.1389280       -3.9138690
 H       -6.1757710        1.9708020       -4.4207000
 H       -6.8972830        1.5551840       -2.8620130
 H       -6.9708440       -0.4010060       -4.4230730
 H       -5.9305440       -0.7863730       -3.0298210
 H       -5.1979990       -0.3696380       -4.5954350
 C       -1.7237710        5.6050300       -0.1730730
 C       -1.7824590        5.6915750        1.3758210
 C       -1.3407430        7.0285030       -0.6922400
 C       -3.1797460        5.3791600       -0.6896580
 H       -0.8290540        6.0207600        1.8098430
 H       -2.0777150        4.7429510        1.8249070
 H       -2.5333340        6.4453960        1.6588700
 H       -1.2643170        7.0684370       -1.7891600
 H       -0.4095450        7.4017430       -0.2606720
 H       -2.1337970        7.7305060       -0.3966960
 H       -3.7791770        6.2658320       -0.4352780
 H       -3.6617230        4.5226080       -0.2188030
 H       -3.2275030        5.2581830       -1.7801770
 C        0.3190620        3.4151050        3.0396950
 H        0.0740250        3.1140640        4.0664930
 H       -0.5504560        3.1930520        2.4211280
 H        0.4687470        4.5047860        3.0533830
 C        3.5156120        1.1519670       -0.4426230
 O        3.7286210       -0.2266930       -0.4896700
 O        3.8806900        1.9209510       -1.3544300
 C        4.4157270       -0.7509700       -1.6945690
 H        5.4224870       -0.3167580       -1.7765600
 H        4.4648600       -1.8325830       -1.5292280
 H        3.8292240       -0.5144010       -2.5887530
 C        4.4597730        0.8968530        4.4236850
 C        5.6384850        1.8630980        4.7245220
 H        4.8687900       -0.0886390        4.1504960
 H        3.8762540        0.7502560        5.3465960
 H        6.2704530        2.0085100        3.8354670
 H        6.2714920        1.4595830        5.5303560
 H        5.2726750        2.8514640        5.0415860
