91
M00000179_2D_DFT last geometry from G09 out file
 Ru        0.2533580        0.1887520       -0.4527290
 C       -1.2818340       -0.6424740       -0.9408190
 Cl        0.1723640       -0.3516360        1.9097920
 Cl        1.2042040        0.2325700       -2.6959750
 H       -2.2543670       -0.2633170       -1.2540890
 H       -1.1658580       -1.7498470       -0.9498580
 C       -0.0083320        2.1344580       -0.4133880
 N        1.0309690        2.9495640        0.0477790
 N       -1.0031450        2.9434090       -0.9319100
 C        0.8221460        4.4265220       -0.3131770
 C        1.9758040        2.5071520        1.0896910
 C       -0.6369340        4.4376190       -0.9578720
 H        0.8061690        4.9931270        0.6246990
 H       -0.5333560        4.6953240       -2.0183480
 C        1.6951010        2.8542290        2.4521980
 C        3.1307290        1.6953840        0.8242820
 C        2.5914670        2.4744310        3.4744590
 C        3.7353710        1.7002210        3.2117360
 H        2.3667940        2.7545170        4.5009290
 C        3.9685810        1.2893930        1.8880660
 H        4.8260870        0.6545980        1.6816750
 C       -2.1949050        2.4167550       -1.5726970
 C       -2.3225830        2.4600130       -2.9958600
 C       -3.2569400        1.8464080       -0.7938030
 C       -3.5241840        2.0088310       -3.5871600
 C       -4.5908530        1.4934380       -2.8228480
 H       -3.6336520        2.0453090       -4.6704220
 C       -4.4345030        1.3913380       -1.4258960
 H       -5.2276330        0.9597300       -0.8247900
 C       -1.2220250        2.9460710       -3.9205480
 H       -1.2552350        4.0393790       -4.0542020
 H       -1.3442450        2.4994070       -4.9155810
 H       -0.2306510        2.6679880       -3.5555580
 C       -3.2014630        1.7099370        0.7058760
 O       -3.8452530        0.5440810        1.1139680
 O       -2.6938430        2.5148900        1.5132630
 C       -3.8386180        0.2567730        2.5709020
 H       -4.3836320       -0.6885210        2.6632040
 H       -2.8043480        0.1524460        2.9193680
 H       -4.3458670        1.0613020        3.1209470
 C        2.0143820        5.0500810       -1.1869960
 C        3.3357660        5.0166570       -0.3559500
 C        2.2015020        4.3318510       -2.5511070
 C        1.7779560        6.5601730       -1.4913400
 H        3.1906540        5.4421850        0.6498050
 H        4.0950870        5.6292810       -0.8637400
 H        3.7521320        4.0161640       -0.2655720
 H        2.2530450        3.2473670       -2.4518410
 H        3.1456100        4.6579640       -3.0104560
 H        1.3958390        4.5902250       -3.2532930
 H        0.9242480        6.7362420       -2.1512450
 H        2.6671990        6.9433790       -2.0126130
 H        1.6559660        7.1589480       -0.5767260
 C       -5.8315260        1.0519520       -3.5336950
 O       -6.7863300        0.5423630       -2.6519480
 O       -6.0142160        1.1238360       -4.7705450
 C       -8.0550550        0.0723610       -3.2517470
 H       -8.6485360       -0.2813330       -2.4019840
 H       -8.5619970        0.8973510       -3.7707120
 H       -7.8628910       -0.7415720       -3.9640400
 C       -1.7255550        5.5052170       -0.3953410
 C       -1.7838020        5.6544700        1.1488250
 C       -1.4080190        6.9209630       -0.9766010
 C       -3.1717150        5.1924790       -0.8931870
 H       -0.8446290        6.0418490        1.5651800
 H       -2.0385870        4.7147520        1.6398010
 H       -2.5647680        6.3876180        1.4025160
 H       -2.2318900        7.5981890       -0.7095030
 H       -1.3342920        6.9174250       -2.0743810
 H       -0.4946800        7.3544630       -0.5637390
 H       -3.2208910        5.0304390       -1.9782000
 H       -3.8100270        6.0592620       -0.6678330
 H       -3.6122390        4.3341680       -0.3856710
 C        0.4312420        3.5608570        2.8982060
 H       -0.4304890        3.2869810        2.2900990
 H        0.5425520        4.6549290        2.8764700
 H        0.2004680        3.2848460        3.9351160
 C        3.6820370        1.2597940       -0.5188900
 O        3.9166950       -0.1118700       -0.5073980
 O        4.0272230        2.0035630       -1.4581940
 C        4.6279470       -0.6792220       -1.6800850
 H        4.7012630       -1.7491690       -1.4592920
 H        4.0444050       -0.5008870       -2.5895830
 H        5.6244580       -0.2247820       -1.7719270
 C        4.6935190        1.2652710        4.2741690
 O        4.3164700        1.7267280        5.5389600
 O        5.7199780        0.5746990        4.0815320
 C        5.1914300        1.3394030        6.6668450
 H        6.2085300        1.7259700        6.5143570
 H        4.7262290        1.7944700        7.5479470
 H        5.2299110        0.2456810        6.7630410
