97
M00000512_2D_DFT last geometry from G09 out file
 Ru        0.3119390        0.6511280       -0.3817650
 C       -1.1593270       -0.2651370       -0.9126410
 Cl        0.2395980        0.0093670        1.9577500
 Cl        1.2706800        0.8162250       -2.6189770
 H       -2.1511380        0.0590900       -1.2275710
 H       -0.9721760       -1.3620470       -0.9512690
 C       -0.0809790        2.5764930       -0.2881070
 N        0.8918410        3.4422380        0.2182700
 N       -1.1238790        3.3278000       -0.7949520
 C        0.5726160        4.9184300       -0.0683610
 C        1.8711300        2.9970170        1.2290970
 C       -0.8675370        4.8461530       -0.7587780
 H        0.4870330        5.4233410        0.9008280
 H       -0.7528200        5.1472160       -1.8066460
 C        1.5830990        3.2192310        2.6185080
 C        3.0699130        2.2713960        0.8900480
 C        2.5008590        2.7822770        3.6037650
 C        3.6484250        2.0893720        3.2385310
 H        2.2809020        2.9278690        4.6596180
 C        3.9358820        1.8021970        1.9078790
 H        4.8194020        1.2243360        1.6544910
 C       -2.2736410        2.7378440       -1.4591130
 C       -2.3979340        2.8102150       -2.8860060
 C       -3.2955810        2.0841200       -0.6928820
 C       -3.5793590        2.3169020       -3.4916340
 C       -4.5760500        1.7300720       -2.7110270
 H       -3.7185940        2.3722020       -4.5676210
 C       -4.4495060        1.5722100       -1.3309670
 H       -5.2205930        1.0650740       -0.7585720
 C       -1.3085650        3.4058670       -3.7771720
 C       -1.1575320        2.7759130       -5.1870850
 H       -1.5030930        4.4867570       -3.9049090
 H       -0.3469890        3.3119990       -3.2653910
 C        0.0570610        3.3495060       -5.9570610
 H       -1.0366140        1.6860720       -5.0847840
 H       -2.0625190        2.9486000       -5.7931720
 C        0.2141400        2.7465890       -7.3703900
 H        0.9749230        3.1591950       -5.3774860
 H       -0.0433020        4.4469480       -6.0399000
 H        1.0880790        3.1736620       -7.8868700
 H       -0.6726920        2.9439250       -7.9944760
 H        0.3553350        1.6552840       -7.3222180
 C       -3.2302710        1.8988230        0.8025700
 O       -3.8133390        0.6864290        1.1664690
 O       -2.7650940        2.6983550        1.6390810
 C       -3.7910130        0.3455190        2.6116480
 H       -4.2882390       -0.6284910        2.6681130
 H       -2.7524590        0.2797250        2.9563910
 H       -4.3372650        1.1026210        3.1908980
 C        1.7292220        5.6942910       -0.8666750
 C        3.0436980        5.6775470       -0.0238400
 C        1.9705980        5.1161210       -2.2876080
 C        1.3987600        7.2081890       -1.0380930
 H        2.8637190        6.0127150        1.0097170
 H        3.7660040        6.3747610       -0.4730720
 H        3.5213220        4.7015210       -0.0051140
 H        2.9018110        5.5301990       -2.7000600
 H        1.1604510        5.3977660       -2.9756320
 H        2.0779300        4.0311170       -2.2854540
 H        1.2006010        7.7070700       -0.0777460
 H        0.5613800        7.3890640       -1.7162720
 H        2.2775900        7.6983430       -1.4816320
 F       -5.7390670        1.2544530       -3.3424390
 C       -2.0500780        5.8105260       -0.1995080
 C       -2.1651560        5.8874490        1.3443600
 C       -1.8218410        7.2687580       -0.7136890
 C       -3.4541970        5.4188400       -0.7600450
 H       -1.2690560        6.3222030        1.8039750
 H       -2.3639040        4.9090510        1.7832510
 H       -3.0046610        6.5499340        1.6055460
 H       -0.9703440        7.7578980       -0.2368830
 H       -2.7109940        7.8665050       -0.4671330
 H       -1.6932450        7.3144970       -1.8055060
 H       -4.1572350        6.2316940       -0.5266670
 H       -3.8538270        4.5143080       -0.3015510
 H       -3.4556560        5.2955270       -1.8511160
 C        0.2887400        3.8023990        3.1797320
 C        0.4743490        5.0942640        4.0313750
 H       -0.4481190        3.9658370        2.3962540
 H       -0.1472010        3.0243320        3.8271960
 C       -0.7383680        5.4016100        4.9441300
 H        1.3690430        4.9999580        4.6667190
 H        0.6676440        5.9556260        3.3699040
 C       -0.5743890        6.7067390        5.7542770
 H       -0.8824180        4.5569260        5.6405800
 H       -1.6574830        5.4596990        4.3404760
 H       -1.4466290        6.8819010        6.4035430
 H       -0.4716470        7.5806870        5.0909430
 H        0.3190270        6.6699780        6.3982320
 C        3.6460640        1.9996010       -0.4861090
 O        4.0652370        0.6737120       -0.5700970
 O        3.8670080        2.8377380       -1.3814180
 C        4.8018840        0.2837290       -1.7968930
 H        5.0257250       -0.7782950       -1.6516040
 H        4.1657010        0.4371560       -2.6749670
 H        5.7243650        0.8745390       -1.8882850
 F        4.5275860        1.6400870        4.2384410
