95
Mol_000332_2D_DFT last geometry from G09 out file
 Ru        0.6202320        0.3791930       -1.2126100
 C       -1.0018210       -0.4943320       -1.3814800
 Cl        0.9238830       -0.7876160        0.9617380
 Cl        0.6144720        0.8632230       -3.6347280
 H       -1.5938030       -0.8777570       -0.5351720
 H       -1.3766190       -0.7903580       -2.3787730
 C       -0.0419710        2.0436060       -0.5049060
 N        0.9107470        2.9887530       -0.0874370
 N       -1.2892530        2.6348490       -0.4683320
 C        2.0802840        2.6159860        0.6869820
 C        0.3413830        4.4040900       -0.3745620
 C        3.0916100        1.7155980        0.2176870
 C        2.1947030        3.0748660        2.0223120
 C        4.1818570        1.4054120        1.0604620
 C        4.3137800        1.9071390        2.3735940
 H        4.9499720        0.7270300        0.6944770
 C        3.2858350        2.7508340        2.8451400
 H        3.3156310        3.1356760        3.8661440
 C       -1.2038800        4.1206200        0.0046420
 C       -2.4946210        2.0295530       -1.0140640
 C       -3.5683400        1.4975300       -0.2074300
 C       -2.6427230        2.0466280       -2.4220660
 C       -4.7386890        1.0601510       -0.8952550
 C       -4.8897200        1.1072520       -2.2978020
 H       -5.5560710        0.6425200       -0.3103480
 C       -3.8097160        1.6026220       -3.0642640
 H       -3.8717580        1.6409160       -4.1525610
 C       -6.1533960        0.5767900       -2.9644680
 C       -6.0523860       -0.9234200       -3.3717820
 H       -6.3720680        1.1685300       -3.8687040
 H       -7.0164650        0.6992210       -2.2895360
 C       -7.3321560       -1.4481720       -4.0583670
 H       -5.8396720       -1.5273380       -2.4739190
 H       -5.1903010       -1.0567650       -4.0458540
 H       -7.5508180       -0.8866520       -4.9809420
 H       -7.2253210       -2.5098680       -4.3307710
 H       -8.2087640       -1.3590260       -3.3964350
 C        0.5975080        4.6281920       -1.9233510
 C        0.3311180        5.9992670       -2.6000090
 H        1.6634560        4.4178120       -2.0623530
 H        0.0767990        3.8465150       -2.4883240
 H        0.7913330        6.8416150       -2.0676690
 H       -0.7314730        6.2296100       -2.7296950
 H        0.7773140        5.9724690       -3.6073630
 C        0.9957660        5.5661000        0.4264380
 C        2.4673380        5.9411240        0.1152280
 H        0.3741000        6.4544130        0.2392220
 H        0.9227910        5.3783940        1.4981700
 H        2.6172990        6.2690100       -0.9201960
 H        3.1599990        5.1162190        0.3141570
 H        2.7621090        6.7790650        0.7672140
 C       -2.1817010        5.0488170       -0.7832450
 C       -3.6970830        5.0452350       -0.4603030
 H       -1.8153140        6.0746880       -0.6313850
 H       -2.0776750        4.8395710       -1.8528270
 H       -4.1854600        4.1146710       -0.7606770
 H       -4.1722510        5.8619480       -1.0279290
 H       -3.9167800        5.2161200        0.6000560
 C       -1.5179500        4.1186460        1.5460510
 C       -1.6902080        5.4530300        2.3208940
 H       -2.4541980        3.5588830        1.6419590
 H       -0.7621560        3.5039460        2.0524500
 H       -2.3567120        6.1607330        1.8123180
 H       -0.7489710        5.9777080        2.5207850
 H       -2.1450970        5.2295210        3.2997200
 N        2.9738430        1.0838910       -1.1035060
 C        3.4729490        1.9907300       -2.1948980
 C        3.6552460       -0.2487230       -1.2423470
 H        4.5660360        2.1309980       -2.1071920
 H        2.9846720        2.9615810       -2.1229640
 H        3.2245350        1.5534750       -3.1662840
 H        3.3585260       -0.9043660       -0.4180710
 H        4.7559990       -0.1610120       -1.2751330
 H        3.3304030       -0.6906800       -2.1945610
 H        1.3943870        3.6717850        2.4453840
 C        5.4808400        1.4940740        3.2600530
 C        5.2010220        0.1982440        4.0784930
 H        5.7222670        2.3079230        3.9635550
 H        6.3816210        1.3316190        2.6451680
 C        6.3902580       -0.2171680        4.9714190
 H        4.9534390       -0.6212010        3.3841240
 H        4.3047950        0.3519250        4.7018210
 H        6.6386280        0.5695960        5.7021560
 H        6.1570140       -1.1346740        5.5340060
 H        7.2935390       -0.4136390        4.3714020
 N       -3.5401840        1.4554120        1.2163220
 C       -4.8168770        1.4255410        1.9502470
 C       -2.4675000        0.7149380        1.9191920
 H       -5.2876770        0.4213300        1.9875060
 H       -5.5343110        2.1305690        1.5108360
 H       -4.6278230        1.7349760        2.9895250
 H       -1.5232640        0.7621510        1.3823840
 H       -2.7303950       -0.3537780        2.0417840
 H       -2.3156120        1.1425200        2.9220500
 H       -1.8101320        2.4061600       -3.0206120
