89
Mol_000362_2D_DFT last geometry from G09 out file
 Ru        0.4980540       -0.0820730       -0.3029150
 C       -0.9127510       -0.8927100       -1.1053870
 Cl        0.0743260       -0.6663300        2.0028280
 Cl        1.9317990       -0.3180600       -2.2736270
 H       -1.7606860       -0.4454290       -1.6290300
 H       -0.8536380       -2.0027920       -1.1155690
 C        0.1057170        1.8555580       -0.2574880
 N        1.0201220        2.7379060        0.3379810
 N       -0.9189120        2.6031570       -0.8210510
 C        0.7141590        4.1908800        0.0044550
 C        1.9129140        2.3631770        1.4505430
 C       -0.6972770        4.1180780       -0.7003200
 H        0.6223010        4.7131600        0.9595600
 H       -0.6029760        4.4729810       -1.7323310
 C        1.5517170        2.6621110        2.8125110
 C        3.1705390        1.7153620        1.2237060
 C        2.4005910        2.2710520        3.8697620
 C        3.6049480        1.5692900        3.6628760
 H        2.0943290        2.5011660        4.8907880
 C        3.9635800        1.3172440        2.3294860
 H        4.9035290        0.8031010        2.1187030
 C       -2.0765600        2.0899210       -1.5401730
 C       -2.2443800        2.3590690       -2.9484270
 C       -3.1258690        1.4169040       -0.8369630
 C       -3.4588460        1.9996230       -3.5806400
 C       -4.5150550        1.3671480       -2.8912410
 H       -3.5752850        2.2018440       -4.6444440
 C       -4.3144340        1.0718860       -1.5299750
 H       -5.1022670        0.5620310       -0.9722700
 N       -1.2096890        3.0061890       -3.7200980
 C       -0.1180100        2.1037900       -4.1683470
 C       -1.6470320        3.9196770       -4.7982040
 H       -0.4589810        1.4112380       -4.9661580
 H        0.2598430        1.5056380       -3.3398900
 H        0.7136790        2.6993890       -4.5686450
 H       -2.4658800        4.5605850       -4.4481180
 H       -1.9789070        3.4034580       -5.7235470
 H       -0.7984470        4.5640720       -5.0755590
 C       -3.0628460        0.9984020        0.6246020
 H       -3.9756800        1.3120160        1.1533570
 H       -2.1980130        1.3901520        1.1562970
 H       -3.0084480       -0.0970580        0.7036580
 C        1.8684680        4.9305570       -0.8312720
 C        3.1588300        5.0541140        0.0353950
 C        2.1854100        4.2211350       -2.1749690
 C        1.4695510        6.3964460       -1.1866320
 H        2.9478370        5.5379750        1.0015490
 H        3.8952260        5.6804690       -0.4907810
 H        3.6308000        4.0930300        0.2378660
 H        2.3684190        3.1515870       -2.0581870
 H        3.0833860        4.6683670       -2.6278380
 H        1.3617300        4.3419700       -2.8881410
 H        2.2976470        6.8528460       -1.7495950
 H        1.3004400        7.0134970       -0.2947950
 H        0.5802220        6.4510010       -1.8256950
 C       -5.8117350        1.0128710       -3.6007900
 H       -5.6214870        0.5630690       -4.5872070
 H       -6.4307210        1.9103020       -3.7685640
 H       -6.4125600        0.3023110       -3.0167720
 C       -1.8998940        4.9749850       -0.0479260
 C       -2.4682420        4.3478420        1.2498520
 C       -1.4306480        6.4206900        0.3133750
 C       -3.0584260        5.1704390       -1.0761040
 H       -1.6616840        4.0479650        1.9227870
 H       -3.0885350        3.4769820        1.0382870
 H       -3.1057730        5.0812510        1.7671890
 H       -2.2863350        6.9590050        0.7468490
 H       -1.1058470        6.9882640       -0.5650180
 H       -0.6284380        6.4395560        1.0606240
 H       -3.5676560        4.2370270       -1.3265610
 H       -2.6950060        5.6278040       -2.0088600
 H       -3.8110310        5.8510100       -0.6485380
 N        0.3182800        3.3702720        3.1660420
 C       -0.6307820        2.5432010        3.9623560
 C        0.5605490        4.6900150        3.8063040
 H       -1.5978460        3.0637160        4.0251000
 H       -0.2838600        2.3545610        4.9995810
 H       -0.7764670        1.5772670        3.4713880
 H        1.2694640        5.2782200        3.2087810
 H        0.9676100        4.6199280        4.8370870
 H       -0.3897240        5.2424440        3.8619370
 C        3.8046400        1.4600280       -0.1335440
 H        4.0846100        0.4042690       -0.2428290
 H        4.7316960        2.0490310       -0.2251690
 H        3.1627590        1.7034310       -0.9736470
 C        4.4588550        1.1001820        4.8276870
 H        4.0262880        0.1968370        5.2896010
 H        4.5278110        1.8656850        5.6155060
 H        5.4796920        0.8488470        4.5081980
