61
Mol_000363_2D_DFT last geometry from G09 out file
 Ru        0.0016650        0.4311320        0.5679370
 C       -1.2590770       -0.4095580       -0.4329990
 Cl       -1.0696940        0.6596400        2.7115190
 Cl        1.9579460       -0.2749740       -0.6407890
 H       -1.8554900       -0.0259640       -1.2637590
 H       -1.3873740       -1.4874340       -0.1965210
 C       -0.1472620        2.3072940        0.0424290
 N        0.7728330        3.2574290        0.4719290
 N       -1.1213870        2.9960340       -0.6731300
 C        0.4483420        4.6468490        0.0267730
 C        2.0133880        3.0379590        1.1827940
 C       -0.9361040        4.4846680       -0.6303040
 H        0.4164240        5.3115940        0.8953960
 H       -0.9655320        4.8881170       -1.6467230
 C        2.0745140        3.1163640        2.6118340
 C        3.2242060        2.7781030        0.4555370
 C        3.3046570        2.8636370        3.2744230
 C        4.4744410        2.5780120        2.5584780
 H        3.3101320        2.8944070        4.3624030
 C        4.4335540        2.5479890        1.1571120
 H        5.3325050        2.3324610        0.5865730
 C       -2.2814000        2.4831690       -1.3568910
 C       -2.1985720        2.1739100       -2.7455580
 C       -3.5260340        2.2807340       -0.6824040
 C       -3.3142340        1.6291130       -3.4256090
 C       -4.5292170        1.4184290       -2.7523880
 H       -3.2159260        1.3671100       -4.4787560
 C       -4.6305830        1.7441380       -1.3896620
 H       -5.5630030        1.5774910       -0.8549470
 C       -0.9531280        2.3351680       -3.5871100
 O       -0.5893030        3.6705960       -3.7119440
 O       -0.3942440        1.4006150       -4.1962840
 C        0.5850660        3.9695580       -4.5752460
 H        0.5659390        5.0585610       -4.6937130
 H        1.4956490        3.6433160       -4.0633810
 H        0.4820040        3.4646030       -5.5445680
 C       -3.7445060        2.6551730        0.7593900
 O       -4.5974370        1.7456050        1.3740710
 O       -3.2897600        3.6664400        1.3364920
 C       -4.8917740        1.9645890        2.8105200
 H       -5.3348710        2.9580320        2.9660230
 H       -5.6008010        1.1709050        3.0680000
 H       -3.9668270        1.8656090        3.3905080
 H        1.2094760        4.9828260       -0.6867030
 H       -5.3859620        1.0019320       -3.2824330
 H       -1.7374010        4.9213960       -0.0238460
 C        0.9565780        3.4648980        3.5699620
 O       -0.0394990        4.2517710        3.0183050
 O        0.9764820        3.1465210        4.7802450
 C       -1.1687940        4.6003960        3.9173830
 H       -1.9211270        5.0367920        3.2558120
 H       -1.5519550        3.6941510        4.4002480
 H       -0.8289140        5.3151970        4.6797930
 C        3.2884080        2.7620430       -1.0494250
 O        4.4255480        2.0950500       -1.4948530
 O        2.4837420        3.3053200       -1.8392490
 C        4.5553920        1.9012890       -2.9545750
 H        5.4945130        1.3511450       -3.0753780
 H        3.7070230        1.3114360       -3.3255520
 H        4.5971710        2.8693810       -3.4733370
 H        5.4089950        2.3860300        3.0857450
