83
M00000492_2D_DFT last geometry from G09 out file
 Ru        0.5025350        0.3943900       -0.3921030
 C       -1.0134160       -0.5388030       -0.7390980
 Cl        0.8233760       -0.3255800        1.8912890
 Cl        1.3893700        0.5194000       -2.6425180
 H       -2.0537460       -0.2126930       -0.7409260
 H       -0.8353900       -1.6165450       -0.9439750
 C        0.0443350        2.2974020       -0.2714090
 N        1.0058400        3.2040880        0.1896900
 N       -1.0510330        3.0154150       -0.7369440
 C        0.6213010        4.6633310       -0.0932680
 C        2.0364690        2.8330560        1.1822890
 C       -0.8433970        4.5376500       -0.6977710
 H        0.5783870        5.1819660        0.8732650
 H       -0.7980600        4.8723270       -1.7410340
 C        1.7448330        3.0513800        2.5716210
 C        3.2872340        2.2070250        0.8345480
 C        2.7168810        2.7505750        3.5541260
 C        3.9298360        2.1832060        3.1807560
 H        2.5001110        2.9022960        4.6095040
 C        4.2127760        1.8720090        1.8538060
 H        5.1551860        1.3857230        1.6159470
 C       -2.1930270        2.4087410       -1.4105280
 C       -2.2569810        2.4444120       -2.8451270
 C       -3.2884780        1.8351720       -0.6636230
 C       -3.4025500        1.9310570       -3.4990710
 C       -4.4548130        1.4036470       -2.7524340
 H       -3.4716530        1.9312080       -4.5830560
 C       -4.4227130        1.3450880       -1.3610600
 H       -5.2642160        0.9048460       -0.8353900
 C       -1.1359750        3.0286590       -3.7023360
 C       -0.9908640        2.4588740       -5.1313620
 H       -0.1861610        2.8807090       -3.1849550
 H       -1.2906450        4.1192190       -3.7843410
 H       -1.8351520        2.7181380       -5.7877310
 H       -0.8765810        1.3664180       -5.1148820
 H       -0.0833530        2.8770650       -5.5913370
 C       -3.3259450        1.6694420        0.8452560
 C       -4.6829200        1.4948080        1.5397800
 O       -2.2803770        1.6563860        1.5422520
 H       -4.5312460        1.6422400        2.6151350
 H       -5.4438210        2.1986170        1.1746610
 H       -5.0699450        0.4728210        1.3976060
 C        1.6902290        5.4624130       -0.9886970
 C        3.0245300        5.6047700       -0.1915610
 C        1.9287140        4.7955250       -2.3724250
 C        1.2449970        6.9282600       -1.2831570
 H        2.8472740        6.0099190        0.8175640
 H        3.6854540        6.3101200       -0.7166560
 H        3.5671700        4.6657440       -0.1090140
 H        2.8478990        5.1983350       -2.8197810
 H        1.1063920        5.0197470       -3.0665830
 H        2.0570150        3.7158050       -2.3063530
 H        2.0321710        7.3989070       -1.8903090
 H        1.1330350        7.5326380       -0.3732910
 H        0.3197130        6.9872360       -1.8656710
 F       -5.5852900        0.9051050       -3.4242320
 C       -2.0405920        5.4109610       -0.0526800
 C       -2.4225370        5.0394740        1.4055170
 C       -1.6823190        6.9296080       -0.0134220
 C       -3.3103960        5.3276990       -0.9633390
 H       -1.6945420        5.4389740        2.1201290
 H       -2.5040680        3.9676500        1.5711300
 H       -3.3922730        5.4979120        1.6522090
 H       -2.5138960        7.4605510        0.4731670
 H       -1.5617770        7.3646130       -1.0125840
 H       -0.7818890        7.1381610        0.5730000
 H       -3.8392040        4.3751540       -0.8893590
 H       -3.0638850        5.5012560       -2.0215530
 H       -4.0182440        6.1145010       -0.6632150
 C        0.3898750        3.4931240        3.1129180
 C        0.4220470        4.7879680        3.9658990
 H        0.0112070        2.6682700        3.7378000
 H       -0.3322780        3.5887090        2.3068130
 H        0.7705290        5.6566990        3.3865080
 H        1.0845870        4.6903040        4.8374200
 H       -0.5848390        5.0138600        4.3480620
 C        3.8678040        1.8835270       -0.5464010
 C        4.4621300        0.4874990       -0.7560420
 O        3.9776080        2.7546800       -1.4400420
 H        4.0207230       -0.2712400       -0.1002810
 H        4.3120260        0.2061860       -1.8036850
 H        5.5495840        0.5197740       -0.5750190
 F        4.8805020        1.8765130        4.1701670
