93
M00000494_2D_DFT last geometry from G09 out file
 Ru        0.2203460        0.1852210       -0.7864120
 C       -1.3075460       -0.5999050       -1.3668570
 Cl        0.2729360       -0.7244640        1.4454100
 Cl        1.2458950        0.4882040       -2.9798760
 H       -2.2919310       -0.1760320       -1.5652800
 H       -1.1881360       -1.6881230       -1.5635070
 C       -0.1157520        2.0922310       -0.4379950
 N        0.8367690        2.8579520        0.2515160
 N       -1.0787870        2.9447460       -0.9494180
 C        0.6489330        4.3613240        0.0112550
 C        1.7208260        2.3755900        1.3272050
 C       -0.7434900        4.4398570       -0.7449230
 H        0.5626060        4.8433110        0.9949670
 H       -0.5713100        4.8197100       -1.7547710
 C        1.3739210        2.6610130        2.6988920
 C        2.9711400        1.7285140        1.0655990
 C        2.3042710        2.4204260        3.7285870
 C        3.5560860        1.8215800        3.4774100
 H        2.0608850        2.6513450        4.7620060
 C        3.8446520        1.4614830        2.1498910
 H        4.7908990        0.9781690        1.9227920
 C       -2.2274030        2.4747590       -1.7188620
 C       -2.2672650        2.5610690       -3.1558480
 C       -3.3482630        1.8997970       -1.0254190
 C       -3.4126790        2.1135550       -3.8482550
 C       -4.5497030        1.6170130       -3.1768490
 H       -3.4558560        2.1634530       -4.9333920
 C       -4.4874060        1.5143850       -1.7730390
 H       -5.3402920        1.1209870       -1.2260210
 C       -1.1928860        3.1587930       -4.0525100
 C       -0.8498910        2.4330020       -5.3502720
 O       -0.6469730        4.2619380       -3.7864260
 H        0.1401880        2.7644530       -5.6833320
 H       -0.8518840        1.3446360       -5.2269140
 H       -1.5746810        2.6968070       -6.1380930
 C       -3.4125050        1.7242250        0.4935100
 C       -3.9793580        0.3791100        1.0158700
 H       -4.0527370        2.5291440        0.8942810
 H       -2.4290220        1.8632540        0.9375970
 H       -3.9458180        0.3900510        2.1153770
 H       -3.3750680       -0.4746750        0.6835880
 H       -5.0250570        0.2024970        0.7226470
 C        1.9096830        5.0479570       -0.7231870
 C        3.1245220        5.0936110        0.2575530
 C        2.3025870        4.3341240       -2.0458470
 C        1.6429170        6.5381470       -1.0984750
 H        3.9190110        5.7166280       -0.1791080
 H        3.5576960        4.1135050        0.4600140
 H        2.8468900        5.5478880        1.2219180
 H        1.5642860        4.5154280       -2.8340430
 H        2.4082360        3.2559320       -1.9346530
 H        3.2657550        4.7318410       -2.4005550
 H        2.5423140        6.9249730       -1.6000820
 H        1.4653110        7.1724320       -0.2204190
 H        0.8126600        6.6574060       -1.8008250
 C       -5.7559020        1.2109120       -3.9910820
 C       -6.9815220        0.6392600       -3.2819580
 O       -5.7485450        1.3432010       -5.2465740
 H       -7.3951200        1.3586370       -2.5579370
 H       -7.7484340        0.4054790       -4.0285580
 H       -6.7299690       -0.2786290       -2.7279700
 C       -1.8924860        5.3932870       -0.1400720
 C       -2.3025010        5.1100710        1.3273590
 C       -1.4140420        6.8796280       -0.1714290
 C       -3.1637750        5.3669000       -1.0491650
 H       -2.5608640        4.0695760        1.5108160
 H       -3.1743990        5.7318740        1.5827290
 H       -1.5020100        5.3830210        2.0273110
 H       -2.2249650        7.5086320        0.2243150
 H       -1.1949860        7.2296000       -1.1878920
 H       -0.5367610        7.0542600        0.4596930
 H       -2.9050680        5.4776640       -2.1110220
 H       -3.8125000        6.2131620       -0.7781780
 H       -3.7588670        4.4587960       -0.9315120
 C       -0.0092810        3.0315510        3.1839870
 C       -0.1507420        3.8996350        4.4404900
 O       -1.0366060        2.5708450        2.6283400
 H       -1.1432530        4.3649640        4.4352500
 H       -0.0919470        3.2717300        5.3439410
 H        0.6265930        4.6712670        4.5177220
 C        3.4844280        1.3365630       -0.3192680
 C        4.1106370       -0.0787120       -0.4254650
 H        4.2457430        2.0713250       -0.6331720
 H        2.6910190        1.4099120       -1.0632860
 H        5.0734350       -0.1594460        0.0999100
 H        4.2950560       -0.3075060       -1.4847110
 H        3.4382460       -0.8495760       -0.0249380
 C        4.4967970        1.5851950        4.6338570
 C        5.8029890        0.8314850        4.3959330
 O        4.2012050        2.0045710        5.7879830
 H        6.4439260        1.3610830        3.6735430
 H        6.3407420        0.7401660        5.3460710
 H        5.6120080       -0.1749580        3.9923200
