59
M00000495_2D_DFT last geometry from G09 out file
 Ru       -0.0486780        0.1076780       -0.7873260
 C        1.6094720       -0.3735760       -0.2194970
 Cl        0.4288900        0.3036900       -3.1358680
 Cl       -1.4093950       -0.9890220        0.8619960
 H        2.3860950        0.2310940        0.2540150
 H        1.8709980       -1.4338630       -0.4196000
 C       -0.2283160        1.9684730       -0.2215330
 N        0.6672280        2.8275570        0.4102890
 N       -1.3935240        2.7176150       -0.4587580
 C        0.0428020        4.1422550        0.7467090
 C        1.9750860        2.5622200        0.9654950
 C       -1.2101930        4.2069690       -0.1621210
 H        0.7436500        4.9559330        0.5448040
 H       -0.2286360        4.1642670        1.8125420
 C       -2.3985410        4.9455400        0.5148980
 C       -0.9779120        5.0935310       -1.4287450
 C       -2.0849820        6.4571300        0.3197930
 H       -2.5246600        4.6796090        1.5682430
 H       -3.3314750        4.6902940       -0.0056940
 C       -1.1175380        6.5469740       -0.9090180
 H       -3.0103630        7.0277740        0.1566830
 H       -1.6100120        6.8769070        1.2192000
 H       -0.1419310        6.9559520       -0.6081670
 H       -1.5067270        7.2102680       -1.6946690
 H       -1.7758660        4.8914170       -2.1509830
 H       -0.0183590        4.8961500       -1.9194330
 C        3.1592590        2.9628660        0.2714420
 C        2.0808130        1.9943850        2.2731580
 C        4.4297600        2.7719140        0.8607570
 C        4.5352650        2.1934510        2.1368590
 H        5.3257200        3.0714690        0.3225750
 C        3.3719640        1.8181440        2.8307810
 H        3.4573880        1.3777510        3.8247790
 C       -2.6569180        2.1429890       -0.8983110
 C       -2.9619620        2.0494260       -2.2935050
 C       -3.6336990        1.6827770        0.0521290
 C       -4.1880130        1.4544390       -2.6911170
 C       -5.1182120        0.9758300       -1.7600980
 H       -4.3987400        1.3687840       -3.7582690
 C       -4.8441110        1.1033040       -0.3893220
 H       -5.5641950        0.7419640        0.3419160
 C        3.1277200        3.6579060       -1.0744370
 F        2.2654540        3.0885390       -2.0240040
 F        4.3997950        3.7094090       -1.6885300
 F        2.7222610        5.0329430       -0.9525450
 C        0.8670500        1.5597660        3.0727970
 H        1.1756790        1.1378870        4.0376570
 H        0.2782340        0.8004450        2.5454000
 H        0.1887520        2.3980830        3.2817910
 H        5.5173050        2.0444000        2.5863330
 C       -2.0707230        2.5617110       -3.4114560
 H       -1.0622840        2.8097470       -3.0855020
 H       -2.5253680        3.4530500       -3.8739280
 H       -1.9735970        1.8001830       -4.1947730
 C       -3.5658030        1.8251830        1.5623570
 F       -4.4210540        2.9019790        2.0018530
 F       -2.3132540        2.1016970        2.1309670
 F       -4.0626000        0.6922530        2.2401460
 H       -6.0479970        0.5123900       -2.0903580
