83
M00000488_2D_DFT last geometry from G09 out file
 Ru        0.1906140        0.0761090       -0.3864390
 C       -1.3880230       -0.7132220       -0.8010320
 Cl        0.2999920       -0.4663680        1.9598110
 Cl        1.0722520        0.1411380       -2.6543280
 H       -2.3659590       -0.2752640       -1.0036630
 H       -1.3123040       -1.8191950       -0.8915410
 C       -0.0974260        1.9941610       -0.2380550
 N        0.9813840        2.8272250        0.0995250
 N       -1.1892500        2.7959960       -0.5298000
 C        0.6787690        4.2893720       -0.2012640
 C        1.9883330        2.5030350        1.1275060
 C       -0.8743710        4.2893050       -0.4423120
 H        0.9155390        4.8586100        0.7051070
 H       -1.0854510        4.7055090       -1.4353070
 C        1.6568580        2.8968340        2.4519380
 C        3.2509490        1.8883720        0.8772800
 C        2.5437780        2.7388640        3.5186940
 C        3.8177780        2.1589890        3.2928290
 H        2.2684060        3.0401900        4.5282120
 C        4.1310940        1.7412080        1.9820200
 H        5.1003850        1.2868510        1.7884140
 C       -2.3753450        2.3477220       -1.2535980
 C       -2.3707820        2.5203600       -2.6571740
 C       -3.5210980        1.7860420       -0.6022180
 C       -3.4893700        2.1934210       -3.4399710
 C       -4.6529580        1.6788220       -2.8191970
 H       -3.4382490        2.3309970       -4.5186870
 C       -4.6351490        1.4796030       -1.4163020
 H       -5.5331640        1.0614130       -0.9683910
 H       -1.4687790        2.8886360       -3.1402970
 C       -3.5675000        1.5130120        0.9046020
 C       -4.4947540        0.3661110        1.3705620
 H       -3.8893100        2.4322080        1.4205330
 H       -2.5529170        1.3035600        1.2621120
 H       -5.5590980        0.5851520        1.2029880
 H       -4.3590540        0.2111070        2.4514020
 H       -4.2588910       -0.5836280        0.8688770
 C        1.5710630        4.9139580       -1.3725390
 C        3.0514190        5.0122570       -0.8965500
 C        1.4959910        4.0902080       -2.6864680
 C        1.1254260        6.3737050       -1.6958450
 H        3.6446480        5.5597180       -1.6440240
 H        3.5135000        4.0334090       -0.7658790
 H        3.1339300        5.5592930        0.0554820
 H        1.7285810        3.0329420       -2.5351280
 H        2.2149940        4.4934700       -3.4151740
 H        0.5024420        4.1547080       -3.1530370
 H        1.2263610        7.0412580       -0.8300840
 H        0.0938650        6.4376890       -2.0651710
 H        1.7745300        6.7683670       -2.4912960
 C       -5.9042610        1.3183090       -3.5856220
 C       -5.9237610        1.4812810       -5.1044680
 O       -6.9237240        0.8863730       -2.9784530
 H       -5.1426020        0.8684320       -5.5806860
 H       -6.9027930        1.1681930       -5.4835960
 H       -5.7457680        2.5281430       -5.3962420
 C       -1.7705240        5.1348950        0.5799510
 C       -1.7573600        4.5643090        2.0261570
 C       -1.2643070        6.6098330        0.6600870
 C       -3.2360760        5.2288500        0.0501460
 H       -0.8280900        4.8237050        2.5504610
 H       -1.8758160        3.4776510        2.0518150
 H       -2.5795950        5.0069630        2.6074640
 H       -1.8950520        7.1557800        1.3770630
 H       -1.3401690        7.1287450       -0.3040550
 H       -0.2303890        6.6901600        1.0174320
 H       -3.8011780        5.9467020        0.6629350
 H       -3.7718800        4.2787770        0.0845740
 H       -3.2630860        5.5921410       -0.9887090
 H        0.6714090        3.3074960        2.6433450
 C        3.7432300        1.4004830       -0.4850510
 C        4.2170380       -0.0771180       -0.5150630
 H        4.5944270        2.0309450       -0.7970580
 H        2.9668460        1.5302840       -1.2422860
 H        3.4290020       -0.7615620       -0.1741770
 H        5.1035470       -0.2436260        0.1141890
 H        4.4797280       -0.3563670       -1.5456350
 C        4.7682520        2.0084860        4.4551420
 C        6.0883040        1.2637740        4.2575420
 O        4.4738930        2.4897940        5.5852880
 H        6.7227900        1.7669080        3.5109060
 H        6.6245980        1.2308810        5.2124400
 H        5.9151950        0.2350420        3.9057400
