66
M00000493_2D_DFT last geometry from G09 out file
 Ru       -0.4781890        0.5820380        1.1231340
 C        1.1535000       -0.2158270        1.0457630
 Cl       -1.7175110       -0.9066610       -0.2993010
 Cl       -0.6273750        1.5785670        3.3024890
 H        1.9870180        0.0868410        0.4045430
 H        1.2861440       -1.1334830        1.6533740
 C       -0.0886280        2.2184840        0.1506410
 N        1.0659090        3.0049910        0.1674910
 N       -1.0498550        2.9248490       -0.5931330
 C        0.8966080        4.2762070       -0.6040160
 C        2.2293830        2.9033540        1.0150890
 C       -0.6274400        4.3848920       -0.8733390
 H        1.4774410        4.2292510       -1.5365560
 H        1.2684190        5.1141390       -0.0080770
 C       -0.9270080        4.8314690       -2.3291660
 C       -1.3443210        5.3455900        0.1262830
 C       -0.5531520        6.3168930       -2.5703190
 H       -0.3892540        4.1905150       -3.0421180
 H       -2.0012750        4.7096140       -2.5295530
 C       -1.2736010        7.2585980       -1.5790590
 H        0.5383080        6.4556060       -2.4835330
 H       -0.8156520        6.5815710       -3.6077180
 C       -1.0006760        6.8365030       -0.1176930
 H       -2.3600940        7.2286330       -1.7730820
 H       -0.9507020        8.2998200       -1.7424320
 H       -1.5959880        7.4532220        0.5754740
 H        0.0554630        7.0367040        0.1308710
 H       -1.0881800        5.0630300        1.1555000
 H       -2.4261770        5.2052060        0.0074930
 C        2.1968310        3.6323260        2.2307820
 C        3.4608650        2.2145690        0.6805510
 C        3.2154530        3.6756470        3.1864090
 C        4.3647830        2.9549670        2.8468910
 H        3.1087160        4.2222050        4.1187000
 C        4.5173950        2.2642440        1.6450510
 H        5.4753820        1.7944010        1.4547390
 C       -2.0815280        2.2995970       -1.3868860
 C       -1.6673180        1.6116820       -2.5523820
 C       -3.5052060        2.4428760       -1.1741200
 C       -2.5072960        1.0725080       -3.5294350
 C       -3.8736610        1.2558920       -3.2924980
 H       -2.1220720        0.5444170       -4.3966500
 C       -4.3807610        1.9065870       -2.1676820
 H       -5.4576500        1.9448830       -2.0426380
 N       -4.0641760        3.1300130       -0.0738670
 C       -5.4659780        3.5808010       -0.1544500
 C       -3.6371050        2.8184680        1.3088780
 H       -5.6301260        4.3421370        0.6209990
 H       -6.2005840        2.7684590        0.0144670
 H       -5.6705890        4.0418140       -1.1294210
 H       -4.1356950        1.9073220        1.6887900
 H       -3.8974370        3.6561690        1.9707210
 H       -2.5616400        2.6776140        1.3719440
 F       -4.7888610        0.7350810       -4.2246500
 F        1.0502540        4.3925880        2.5034910
 N        3.6650350        1.4583740       -0.4928070
 C        3.1120740        1.8621830       -1.8049750
 C        4.8553290        0.5883800       -0.5828610
 H        3.2892900        1.0545540       -2.5257100
 H        3.5996750        2.7770200       -2.1912600
 H        2.0364720        2.0161350       -1.7548640
 H        5.7938170        1.1471600       -0.7639370
 H        4.7141110       -0.1113880       -1.4160460
 H        4.9728600       -0.0067070        0.3321590
 F        5.4461680        2.9575260        3.7450120
 F       -0.2823440        1.4947830       -2.7870980
