66
M00000294_2D_DFT last geometry from G09 out file
 Ru        0.4907630        0.0407560       -0.4851670
 C        0.9635520       -0.4079780        1.2283350
 Cl        2.6972040        0.5019020       -1.4328210
 Cl       -1.6687900       -1.1115780       -0.2874700
 H        0.8901540        0.1914450        2.1445630
 H        1.3071240       -1.4496980        1.3980790
 C        0.0500280        1.8959470       -0.2552150
 N        0.7099360        2.8890430        0.4559860
 N       -0.8914660        2.5566100       -1.0617930
 C        0.2876080        4.2637390        0.0660910
 C        1.6550110        2.7677300        1.5347690
 C       -0.5493730        4.0436840       -1.2258600
 H        1.1776180        4.8765230       -0.1204780
 H       -0.3039570        4.7145030        0.8722160
 C        0.3043530        4.1920810       -2.5285660
 C       -1.7714150        4.9956490       -1.2934460
 C        0.7034290        5.6554450       -2.8410760
 H        1.1973540        3.5549270       -2.4562000
 H       -0.2946460        3.8041200       -3.3683020
 C       -0.5242350        6.5930280       -2.8678730
 H        1.4286250        6.0226420       -2.0950800
 H        1.2266780        5.6807630       -3.8107450
 C       -1.3490420        6.4629670       -1.5674970
 H       -1.1628600        6.3388660       -3.7319200
 H       -0.2026360        7.6375860       -3.0090260
 H       -2.2581860        7.0828100       -1.6297490
 H       -0.7655360        6.8556220       -0.7176080
 H       -2.3453330        4.9477360       -0.3577210
 H       -2.4417280        4.6742980       -2.1049020
 C        1.2438980        2.7887770        2.9110170
 C        3.0280000        2.6917480        1.2173530
 C        2.2496050        2.7520520        3.9083440
 C        3.6172320        2.7025610        3.5765260
 H        1.9649970        2.7622960        4.9571440
 C        4.0100080        2.6634360        2.2226270
 H        5.0621010        2.5989320        1.9496680
 C       -2.1385190        1.9961060       -1.5162830
 C       -2.2730170        1.2477120       -2.7251080
 C       -3.2971590        2.2692520       -0.7524650
 C       -3.5665490        0.8991140       -3.1809340
 C       -4.7107750        1.2131440       -2.4261310
 H       -3.6776570        0.3352570       -4.1038610
 C       -4.5730090        1.8818240       -1.1903680
 H       -5.4455450        2.0876530       -0.5720470
 H       -3.1846410        2.7730740        0.2051370
 C       -6.0820210        0.8683590       -2.9460210
 F       -6.0764000       -0.2078970       -3.8603810
 F       -6.6802510        1.9633110       -3.6422430
 F       -6.9914880        0.5281920       -1.9204910
 C       -0.2089060        2.8237370        3.3498090
 C       -0.5794760        2.2116330        4.7014020
 O       -1.1061700        3.3393850        2.6306250
 H       -0.3019540        2.8881480        5.5265230
 H       -1.6661450        2.0734360        4.7327900
 H       -0.0804350        1.2486690        4.8769910
 H        3.3150470        2.6217810        0.1719180
 C        4.6550210        2.7394470        4.6698240
 F        5.8557050        2.0915230        4.3118170
 F        4.2091610        2.1363010        5.8702680
 F        5.0199490        4.0720360        5.0212240
 C       -1.0816830        0.6957320       -3.4448020
 C       -1.1001890        0.5231420       -4.9559540
 O       -0.0660010        0.3180170       -2.7934900
 H       -1.6077540        1.3529290       -5.4661490
 H       -0.0685390        0.4320910       -5.3153520
 H       -1.6259750       -0.4088750       -5.2229520
