45
Mol_000080_2D_DFT last geometry from G09 out file
 Ru        0.1155120        0.0094780        0.2690170
 C       -0.9665160       -0.6776320       -1.0193430
 Cl       -1.2905370        0.1029500        2.2390960
 Cl        2.2255620       -0.4764110       -0.7936790
 H       -1.3948350       -0.1667520       -1.8879980
 H       -1.1550240       -1.7696940       -0.9488420
 C        0.0470370        1.9018550       -0.1459240
 N        1.0507190        2.7659210        0.2697350
 N       -0.8645260        2.6512590       -0.8750680
 C        0.8888070        4.1666570       -0.2376630
 C        2.1609470        2.4251190        1.1272680
 C        0.8756330        5.2328880        0.9011590
 C       -0.4429670        4.0870390       -1.0490980
 H        1.7287050        4.3930900       -0.9119680
 C       -0.4440040        5.2683720        1.6440210
 H        1.7190470        5.0531550        1.5797700
 H        1.0664560        6.2125710        0.4252450
 C       -1.5969120        5.2081950        0.9341790
 H       -0.4430350        5.3255300        2.7341360
 C       -1.5222580        5.1077880       -0.5758410
 H       -2.5732550        5.2155380        1.4223250
 H       -2.4943000        4.8520920       -1.0152030
 H       -1.2390410        6.0868130       -1.0049150
 H       -0.2463910        4.2624680       -2.1179950
 C        1.9278360        1.9121310        2.4249940
 C        3.4871250        2.6539440        0.6894610
 C        3.0192950        1.5995820        3.2631280
 C        4.3414920        1.8257990        2.8285270
 H        2.8288150        1.1894070        4.2561960
 C        4.5693020        2.3597730        1.5399870
 H        5.5894740        2.5238790        1.1890180
 C       -2.1440860        2.2372610       -1.3938170
 C       -2.3922640        2.3220310       -2.7858780
 C       -3.1736430        1.8129880       -0.5204730
 C       -3.6598550        1.9798760       -3.3004420
 C       -4.6849490        1.5435560       -2.4320140
 H       -3.8406950        2.0420360       -4.3748940
 C       -4.4336350        1.4576870       -1.0448990
 H       -5.2177940        1.1182840       -0.3662830
 H        0.9088210        1.7650360        2.7771310
 H        3.6745520        3.0200130       -0.3197170
 H        5.1834350        1.5866630        3.4799360
 H       -1.5957330        2.6325890       -3.4630360
 H       -2.9783640        1.7424560        0.5470290
 H       -5.6637510        1.2731200       -2.8311680
