103
M00000349_2D_DFT last geometry from G09 out file
 Ru        0.2882880        0.1370530       -0.4644930
 C       -1.2184270       -0.6679630       -1.0716600
 Cl        0.1488980       -0.5167990        1.8593900
 Cl        1.3414120        0.1693570       -2.6777180
 H       -2.1481380       -0.2308370       -1.4379700
 H       -1.1353520       -1.7764050       -1.1232630
 C       -0.0580520        2.0647840       -0.3283820
 N        0.9386930        2.9102230        0.1755600
 N       -1.1211060        2.8347350       -0.7754950
 C        0.6340220        4.3839760       -0.1064590
 C        1.9402240        2.4818480        1.1883050
 C       -0.8298700        4.3416990       -0.7191160
 H        0.6161550        4.9033780        0.8606450
 H       -0.7689150        4.6793790       -1.7608130
 C        1.6170340        2.6334680        2.5782110
 C        3.2199000        1.9304410        0.8316780
 C        2.5641410        2.2676210        3.5590020
 C        3.8311620        1.7489980        3.2376510
 H        2.2746390        2.3625380        4.6053410
 C        4.1204570        1.5908680        1.8705670
 H        5.0883010        1.1767390        1.5944680
 C       -2.3081470        2.3079140       -1.4549090
 C       -2.4035670        2.3996290       -2.8834550
 C       -3.3929110        1.7490210       -0.7010060
 C       -3.6131880        2.0253440       -3.5098000
 C       -4.7268100        1.5453000       -2.7883470
 H       -3.6801930        2.1078740       -4.5921660
 C       -4.5780380        1.4008340       -1.3949230
 H       -5.4146420        1.0024350       -0.8211360
 C       -1.2414450        2.8956700       -3.7475360
 C       -1.1070330        2.2530290       -5.1485900
 H       -0.3042420        2.7176660       -3.2148360
 H       -1.3328140        3.9894850       -3.8818890
 H       -1.0442680        1.1586220       -5.0760880
 H       -0.1789910        2.6070520       -5.6231920
 H       -1.9366430        2.5136610       -5.8221250
 C       -3.3677300        1.5126330        0.8141220
 C       -3.8761170        0.1300910        1.2993010
 H       -4.0005040        2.2786990        1.2942760
 H       -2.3539620        1.6450820        1.1996620
 H       -3.2691800       -0.6890840        0.8947350
 H       -4.9276020       -0.0529020        1.0359190
 H       -3.7977870        0.0828230        2.3961600
 C        1.7562840        5.1239760       -0.9930170
 C        3.0443960        5.3069480       -0.1300420
 C        2.0659090        4.3728970       -2.3191590
 C        1.3512130        6.5717560       -1.4113390
 H        3.7923820        5.8773220       -0.7010270
 H        3.5037750        4.3674130        0.1742180
 H        2.8236410        5.8796630        0.7846530
 H        3.0012650        4.7583520       -2.7516020
 H        1.2773970        4.5419840       -3.0645070
 H        2.1754310        3.2975910       -2.1881530
 H        2.1690580        6.9875180       -2.0189620
 H        1.2132990        7.2406520       -0.5533990
 H        0.4485180        6.6012060       -2.0319710
 C       -6.0450420        1.1665230       -3.4772450
 C       -5.8718850       -0.0317440       -4.4528020
 C       -6.7057760        2.3805180       -4.1883370
 H       -6.7419600        0.8388330       -2.6871160
 H       -5.2053000        0.2205150       -5.2909650
 H       -6.8450990       -0.3266270       -4.8753860
 H       -5.4462760       -0.9051760       -3.9361890
 H       -6.0839970        2.7538110       -5.0158220
 H       -6.8665420        3.2123140       -3.4858430
 H       -7.6831650        2.0944100       -4.6073070
 C       -1.9702970        5.2752410       -0.0619570
 C       -2.3726900        4.8920900        1.3863110
 C       -1.5120660        6.7654570        0.0104470
 C       -3.2436810        5.2850170       -0.9689460
 H       -2.5538250        3.8259790        1.5072230
 H       -3.2990770        5.4214650        1.6560060
 H       -1.6092120        5.1995050        2.1082580
 H       -2.3102190        7.3430610        0.5000380
 H       -1.3524160        7.2086260       -0.9794120
 H       -0.6045710        6.9019850        0.6090260
 H       -3.8106270        4.3529960       -0.9253870
 H       -2.9897720        5.4801960       -2.0214510
 H       -3.9128080        6.0942830       -0.6394310
 C        0.2606490        3.0917480        3.1060620
 C        0.3106810        4.3586220        4.0008410
 H       -0.1585630        2.2627410        3.6989540
 H       -0.4370990        3.2479910        2.2852630
 H        0.9501200        4.2082200        4.8817560
 H       -0.6965990        4.6107360        4.3670760
 H        0.7051710        5.2309050        3.4570370
 C        3.7153330        1.7161000       -0.6014300
 C        4.6076400        0.4732710       -0.8431070
 H        4.2884820        2.6051800       -0.9148960
 H        2.8691940        1.6450030       -1.2838700
 H        4.1347320       -0.4438990       -0.4644630
 H        5.6022640        0.5629590       -0.3822000
 H        4.7572600        0.3462480       -1.9253160
 C        4.8468850        1.3324670        4.3087660
 C        4.3332400        0.1323870        5.1538820
 C        5.2732410        2.5205710        5.2151010
 H        5.7527900        0.9888470        3.7809540
 H        3.4433590        0.4030320        5.7417170
 H        5.1115860       -0.2040470        5.8568250
 H        4.0615670       -0.7165470        4.5093050
 H        5.6747010        3.3523730        4.6164380
 H        6.0541930        2.2020530        5.9233140
 H        4.4269580        2.9064040        5.8032590
