85
M00000351_2D_DFT last geometry from G09 out file
 Ru        0.2497400       -0.0821800       -0.5103570
 C       -1.2980650       -0.8313290       -1.0845850
 Cl        0.1424110       -0.6660940        1.8303540
 Cl        1.3015670       -0.0072430       -2.7075180
 H       -2.2346600       -0.3611270       -1.3872860
 H       -1.2429470       -1.9383110       -1.1819720
 C       -0.0309610        1.8382520       -0.3574110
 N        1.0466850        2.6555300        0.0141670
 N       -1.1172690        2.6466780       -0.6482010
 C        0.7519920        4.1247300       -0.2583500
 C        2.0205140        2.2980350        1.0674840
 C       -0.7975680        4.1347600       -0.5232050
 H        0.9784380        4.6707760        0.6651430
 H       -0.9928100        4.5723810       -1.5100690
 C        1.6164260        2.5936690        2.3953430
 C        3.3157580        1.7415340        0.8478970
 C        2.4621850        2.3982300        3.4943470
 C        3.7679350        1.8870330        3.3039540
 H        2.0990250        2.6220800        4.4992070
 C        4.1490310        1.5655100        1.9862180
 H        5.1455000        1.1521560        1.8244050
 C       -2.2998570        2.2223530       -1.3940050
 C       -2.2871960        2.4307000       -2.7925620
 C       -3.4507060        1.6460020       -0.7720340
 C       -3.4040750        2.1270150       -3.5893720
 C       -4.5765100        1.5982180       -3.0006400
 H       -3.3544660        2.2871400       -4.6679000
 C       -4.5614380        1.3601690       -1.6064350
 H       -5.4490510        0.9210040       -1.1522750
 H       -1.3807970        2.8070090       -3.2627240
 C       -3.5108730        1.3287170        0.7258610
 C       -4.3719370        0.1128220        1.1435020
 H       -3.8984790        2.2120950        1.2610240
 H       -2.4940340        1.1667450        1.0986240
 H       -5.4458570        0.2676150        0.9623510
 H       -4.2452570       -0.0646230        2.2221440
 H       -4.0638480       -0.8039340        0.6206670
 C        1.6600320        4.7743990       -1.4044590
 C        3.1272470        4.8890610       -0.8933280
 C        1.6225220        3.9595950       -2.7257510
 C        1.2056590        6.2313890       -1.7289050
 H        3.7359410        5.4335340       -1.6308650
 H        3.5917360        3.9157830       -0.7377980
 H        3.1792100        5.4464860        0.0550900
 H        0.6370780        4.0138780       -3.2104720
 H        1.8640870        2.9043680       -2.5758390
 H        2.3508280        4.3767390       -3.4374750
 H        1.2802080        6.8945910       -0.8571730
 H        0.1820790        6.2871970       -2.1213150
 H        1.8686010        6.6375680       -2.5072360
 C       -5.8167490        1.3022990       -3.8358000
 C       -6.7719120        2.5207330       -3.9679110
 H       -6.3745110        0.4629170       -3.3907370
 H       -5.5150090        0.9794600       -4.8451610
 H       -7.1296520        2.8541780       -2.9820710
 H       -7.6500680        2.2579460       -4.5783300
 H       -6.2666640        3.3723950       -4.4478440
 C       -1.7060010        4.9654410        0.5013880
 C       -1.7162470        4.3700640        1.9368580
 C       -1.1957140        6.4366450        0.6151570
 C       -3.1646970        5.0730150       -0.0442120
 H       -2.5280290        4.8273720        2.5220900
 H       -0.7808340        4.5902890        2.4679970
 H       -1.8685680        3.2874430        1.9404660
 H       -1.8349420        6.9735580        1.3318040
 H       -1.2545760        6.9716210       -0.3413630
 H       -0.1665290        6.5053350        0.9885010
 H       -3.1778520        5.4522230       -1.0775510
 H       -3.7353440        5.7824060        0.5739590
 H       -3.7003460        4.1223170       -0.0330770
 H        0.6066940        2.9513110        2.5666650
 C        3.8870730        1.3262860       -0.5082700
 C        4.3847100       -0.1421590       -0.5767310
 H        4.7447860        1.9803070       -0.7453480
 H        3.1479510        1.4758960       -1.2982660
 H        4.7204880       -0.3692640       -1.5992810
 H        3.5839750       -0.8500800       -0.3252770
 H        5.2274370       -0.3277920        0.1048450
 C        4.7258400        1.7008440        4.4743970
 C        5.5376330        2.9808440        4.8155290
 H        5.4300450        0.8836560        4.2518120
 H        4.1600120        1.3924360        5.3684030
 H        4.8720620        3.8148170        5.0852510
 H        6.1492490        3.3028210        3.9590730
 H        6.2125170        2.7955140        5.6660720
