97
M00000348_2D_DFT last geometry from G09 out file
 Ru        0.2703500       -0.0292490       -0.5089700
 C       -1.2112160       -0.8127020       -1.2005630
 Cl        0.0264990       -0.7312840        1.7909750
 Cl        1.4230320        0.0460710       -2.6710240
 H       -2.1227840       -0.3637080       -1.5968220
 H       -1.1292670       -1.9199400       -1.2745320
 C       -0.0743270        1.8958520       -0.3413370
 N        0.9013920        2.7254310        0.2269590
 N       -1.1138560        2.6808740       -0.8175190
 C        0.6157700        4.2062440       -0.0371150
 C        1.8548510        2.2756330        1.2763670
 C       -0.8192480        4.1847530       -0.7153840
 H        0.5574120        4.7051170        0.9392320
 H       -0.7100520        4.5444270       -1.7456520
 C        1.4675630        2.4016000        2.6516400
 C        3.1501430        1.7290280        0.9667380
 C        2.3739320        2.0227580        3.6668780
 C        3.6563800        1.5184770        3.3913290
 H        2.0457300        2.0913840        4.7050710
 C        4.0066430        1.3751190        2.0363220
 H        4.9843920        0.9614040        1.7967530
 C       -2.2717150        2.1756430       -1.5608750
 C       -2.3008970        2.2983170       -2.9892680
 C       -3.3915820        1.6040430       -0.8671940
 C       -3.4834890        1.9410250       -3.6764410
 C       -4.6286200        1.4529760       -3.0141270
 H       -3.5098570        2.0383000       -4.7605900
 C       -4.5452600        1.2740430       -1.6185760
 H       -5.4056870        0.8601330       -1.0931110
 C       -1.0987430        2.8042230       -3.7900170
 C       -0.9089340        2.1940840       -5.1990900
 H       -0.1870580        2.6055610       -3.2215580
 H       -1.1760300        3.9016390       -3.9017690
 H       -0.8568310        1.0977990       -5.1504990
 H        0.0410890        2.5520040       -5.6247110
 H       -1.7071940        2.4771810       -5.9007770
 C       -3.4306230        1.3311930        0.6416630
 C       -3.9693800       -0.0577130        1.0725890
 H       -4.0764810        2.0911430        1.1140180
 H       -2.4326890        1.4454310        1.0716110
 H       -3.3566700       -0.8728420        0.6685450
 H       -5.0127000       -0.2229280        0.7680180
 H       -3.9304230       -0.1336100        2.1699170
 C        1.7792190        4.9587730       -0.8580660
 C        3.0290130        5.1189430        0.0637440
 C        2.1441760        4.2322500       -2.1836440
 C        1.3979060        6.4163600       -1.2645990
 H        3.8011570        5.7016110       -0.4608440
 H        3.4745360        4.1715950        0.3643700
 H        2.7696940        5.6698530        0.9816850
 H        3.1002010        4.6199830       -2.5659700
 H        1.3910820        4.4209860       -2.9601820
 H        2.2415070        3.1539020       -2.0691320
 H        2.2428940        6.8404360       -1.8276770
 H        1.2250310        7.0686360       -0.4001810
 H        0.5232240        6.4621630       -1.9232170
 C       -5.9087700        1.1354280       -3.7780930
 C       -6.8688440        2.3511290       -3.8991030
 H       -6.4445290        0.3111120       -3.2805760
 H       -5.6582990        0.7817560       -4.7911710
 H       -6.3864880        3.1875570       -4.4270290
 H       -7.1784350        2.7135450       -2.9071690
 H       -7.7759070        2.0729390       -4.4584510
 C       -1.9840820        5.1099230       -0.0900750
 C       -2.4560550        4.6947130        1.3279450
 C       -1.5220190        6.5950680        0.0398240
 C       -3.2134560        5.1489110       -1.0551100
 H       -3.3915340        5.2229870        1.5666600
 H       -1.7259880        4.9800140        2.0922400
 H       -2.6477870        3.6271250        1.4140730
 H       -2.3387360        7.1655310        0.5066510
 H       -1.3148100        7.0614450       -0.9303370
 H       -0.6421190        6.7110860        0.6823840
 H       -3.7860090        4.2192720       -1.0608140
 H       -2.9095320        5.3678930       -2.0895410
 H       -3.8937370        5.9537070       -0.7377110
 C        0.0852800        2.8399610        3.1259480
 C        0.0852690        4.0801690        4.0585110
 H       -0.3578490        1.9921600        3.6731260
 H       -0.5723700        3.0176550        2.2768680
 H        0.6796260        3.9057190        4.9661110
 H       -0.9402690        4.3188210        4.3803230
 H        0.5031170        4.9689690        3.5607990
 C        3.7028900        1.5311430       -0.4475990
 C        4.5977060        0.2861880       -0.6684940
 H        4.2934550        2.4207970       -0.7251020
 H        2.8857410        1.4744580       -1.1658070
 H        4.1049600       -0.6328430       -0.3209010
 H        5.5731310        0.3642820       -0.1662490
 H        4.7907270        0.1718500       -1.7452040
 C        4.6232120        1.1430360        4.5071640
 C        5.5258820        2.3229690        4.9621430
 H        5.2668410        0.3125350        4.1760200
 H        4.0578580        0.7740880        5.3780300
 H        6.1398550        2.6977570        4.1291800
 H        6.2046640        2.0025030        5.7682930
 H        4.9227050        3.1630130        5.3387520
