79
M00000352_2D_DFT last geometry from G09 out file
 Ru        0.3130510        0.1292700       -0.3387110
 C       -1.2386180       -0.7072790       -0.7617630
 Cl        0.3875240       -0.3427990        2.0294210
 Cl        1.2226900        0.0848860       -2.5933020
 H       -2.2138770       -0.2979460       -1.0273000
 H       -1.1410010       -1.8151500       -0.7935790
 C       -0.0094230        2.0532050       -0.2739980
 N        1.0548260        2.9099470        0.0404320
 N       -1.1085050        2.8265140       -0.6049180
 C        0.7328720        4.3675540       -0.2872250
 C        2.0944670        2.5750810        1.0190830
 C       -0.8095160        4.3286750       -0.6191390
 H        0.8961810        4.9468770        0.6297640
 H       -0.9483330        4.6521340       -1.6571650
 C        1.8285360        2.8865020        2.3786250
 C        3.3752750        1.9981780        0.7444060
 C        2.7177920        2.7091610        3.4358660
 C        3.9913250        2.1631350        3.1621880
 H        2.4034570        2.9702290        4.4456610
 C        4.2801080        1.8227610        1.8257280
 H        5.2570020        1.3955420        1.6054240
 C       -2.3146000        2.3061540       -1.2168800
 C       -2.4716780        2.4130870       -2.6195350
 C       -3.3948850        1.7198700       -0.4829390
 C       -3.6075780        2.0043870       -3.3220540
 C       -4.6856120        1.4421530       -2.6019240
 H       -3.6337260        2.1204500       -4.4050500
 C       -4.5491400        1.3127360       -1.2008820
 H       -5.3734950        0.8714550       -0.6443040
 F       -1.4268230        2.9779870       -3.3750220
 C       -3.3466860        1.5429840        1.0375820
 C       -4.0586840        0.2966780        1.6159260
 H       -3.8022820        2.4345610        1.5003210
 H       -2.3043090        1.5226040        1.3694100
 H       -3.6736550       -0.6343180        1.1772650
 H       -5.1490000        0.3212730        1.4732480
 H       -3.8724410        0.2505990        2.6993040
 C        1.6843360        4.9975160       -1.4142140
 C        3.1050000        5.2225450       -0.8111750
 C        1.7677700        4.1153080       -2.6900140
 C        1.1968750        6.4084120       -1.8689310
 H        3.0603390        5.8572720        0.0882450
 H        3.7414580        5.7377030       -1.5461400
 H        3.6047570        4.2923240       -0.5397580
 H        0.8138020        4.0887380       -3.2303100
 H        2.0463930        3.0830160       -2.4740620
 H        2.5212530        4.5338590       -3.3744370
 H        1.8933110        6.7806840       -2.6348760
 H        1.1931240        7.1378840       -1.0495050
 H        0.2008670        6.3900140       -2.3280390
 C       -5.9405190        0.9816890       -3.3233630
 H       -6.7087190        0.6362670       -2.6189840
 H       -5.7199440        0.1504280       -4.0123710
 H       -6.3763220        1.7933900       -3.9266980
 C       -1.7924100        5.2504860        0.2530910
 C       -1.8944210        4.8456840        1.7491970
 C       -1.3171760        6.7371650        0.2251600
 C       -3.2175780        5.2596040       -0.3885360
 H       -1.0091040        5.1585860        2.3132280
 H       -2.0062560        3.7699280        1.8896670
 H       -2.7650700        5.3442300        2.2022060
 H       -1.3391530        7.1676810       -0.7837320
 H       -0.3107870        6.8678250        0.6404890
 H       -2.0018020        7.3291860        0.8505740
 H       -3.7583310        4.3207050       -0.2483750
 H       -3.1754970        5.4704840       -1.4682050
 H       -3.8187330        6.0549830        0.0769070
 F        0.5648390        3.4113160        2.7060500
 C        3.8567260        1.5839310       -0.6466770
 C        4.5025080        0.1766400       -0.7312020
 H        4.6035450        2.3200130       -0.9922790
 H        3.0325890        1.6206800       -1.3596130
 H        4.7193650       -0.0584980       -1.7833780
 H        3.8258690       -0.6001170       -0.3501510
 H        5.4473910        0.1103540       -0.1728640
 C        4.9907180        1.9225410        4.2793410
 H        4.6996660        1.0453480        4.8807360
 H        5.0470410        2.7815840        4.9648500
 H        5.9990390        1.7338750        3.8867870
