89
M00000350_2D_DFT last geometry from G09 out file
 Ru        0.4176690        0.3321160       -0.1681550
 C       -1.0136560       -0.6228190       -0.7430780
 Cl        0.2444020       -0.0610690        2.2128880
 Cl        1.5689350        0.0862820       -2.3067290
 H       -1.8964470       -0.3177490       -1.3075540
 H       -0.9029450       -1.7161990       -0.5720170
 C       -0.0102180        2.2577940       -0.2683260
 N        0.9217620        3.1944240        0.2060880
 N       -1.0638000        2.9507910       -0.8492910
 C        0.5771250        4.6303180       -0.2087470
 C        1.8964120        2.8880450        1.2609400
 C       -0.8605810        4.4810210       -0.8615340
 H        0.4930460        5.2016010        0.7198720
 H       -0.8028230        4.7444090       -1.9235930
 C        1.6933980        3.3918230        2.5948270
 C        3.0562440        2.0564180        1.0490980
 C        2.5855850        3.0482280        3.6398340
 C        3.6534470        2.1840930        3.4126710
 H        2.4009880        3.4330060        4.6401060
 C        3.8890070        1.6799430        2.1357310
 H        4.7280580        1.0176710        1.9513340
 C       -2.2124040        2.3567040       -1.5063960
 C       -2.4464890        2.5764470       -2.9160730
 C       -3.2044270        1.6215860       -0.7709950
 C       -3.6617450        2.1322550       -3.5031610
 C       -4.6151860        1.4518330       -2.7458560
 H       -3.8346610        2.2976890       -4.5627970
 C       -4.3909420        1.1633230       -1.3979370
 H       -5.1197240        0.6065530       -0.8181450
 N       -1.5008520        3.2566350       -3.7564980
 C       -0.3750650        2.4148460       -4.2414990
 C       -2.0476490        4.1189290       -4.8291730
 H        0.0839560        1.8617620       -3.4232510
 H        0.3913230        3.0543740       -4.6969690
 H       -0.7165860        1.6852350       -5.0039260
 H       -2.8885730        4.7160370       -4.4552730
 H       -2.3848030        3.5613590       -5.7272300
 H       -1.2548390        4.8084390       -5.1551680
 C       -3.1356400        1.3238520        0.7087670
 O       -3.6903890        0.0704070        0.9767000
 O       -2.7175840        2.0734500        1.6098780
 C       -3.7330170       -0.3449350        2.4022470
 H       -4.1749510       -1.3467240        2.3791330
 H       -2.7171910       -0.3670470        2.8119840
 H       -4.3597190        0.3484970        2.9802600
 C        1.7096450        5.3251710       -1.1091470
 C        3.0359140        5.4440440       -0.2958770
 C        1.9533610        4.5749080       -2.4453830
 C        1.3378080        6.7932330       -1.4822330
 H        2.8702120        5.9376920        0.6740700
 H        3.7489640        6.0640010       -0.8595060
 H        3.5181200        4.4819400       -0.1318590
 H        2.8531360        4.9766170       -2.9341220
 H        1.1113480        4.7215110       -3.1332270
 H        2.1156450        3.5069380       -2.3018830
 H        2.1659390        7.2114620       -2.0735550
 H        1.2127760        7.4359700       -0.5997840
 H        0.4375550        6.8625750       -2.1006370
 Cl       -6.1540010        0.8904690       -3.5360280
 C       -2.0496750        5.3908820       -0.2538520
 C       -2.2849990        5.2236850        1.2665690
 C       -1.7270940        6.8990840       -0.4948480
 C       -3.4065170        5.1557800       -0.9896990
 H       -1.4122190        5.5456750        1.8404570
 H       -2.5071450        4.1917010        1.5334410
 H       -3.1371440        5.8526380        1.5687910
 H       -1.6234200        7.1444160       -1.5607580
 H       -0.8263040        7.2273320        0.0316240
 H       -2.5642290        7.4950740       -0.1028230
 H       -3.8730920        4.2010830       -0.7374800
 H       -3.3016900        5.2198060       -2.0805200
 H       -4.1101750        5.9445990       -0.6844020
 N        0.5686830        4.2390400        2.9599190
 C       -0.4591790        3.5168620        3.7630940
 C        0.9611690        5.5308380        3.5817500
 H       -0.0898190        3.2425420        4.7730420
 H       -0.7673030        2.6076910        3.2445700
 H       -1.3374900        4.1632590        3.8835050
 H        1.7322280        6.0247760        2.9762760
 H        1.3472200        5.4378200        4.6182560
 H        0.0785170        6.1858990        3.6215840
 C        3.6823860        1.6609550       -0.2746370
 O        4.1984820        0.3697840       -0.2041640
 O        3.8769900        2.4174990       -1.2459130
 C        5.0232770       -0.0818710       -1.3499000
 H        5.2930400       -1.1131760       -1.0994660
 H        4.4338330       -0.0404000       -2.2715770
 H        5.9180050        0.5504390       -1.4422200
 Cl        4.7475930        1.7089990        4.7843710
