51
Mol_000377_2D_DFT last geometry from G09 out file
 Ru        0.0035330        0.1207910        0.7303400
 C       -1.5098230       -0.6563310        0.0928120
 Cl       -0.5855230        0.4540940        3.0452980
 Cl        1.6100890       -0.6276630       -0.8948870
 H       -2.3264920       -0.2283170       -0.4928620
 H       -1.5986040       -1.7360650        0.3385450
 C       -0.1248230        1.9782400        0.1869880
 N        0.9291570        2.8580500        0.4181700
 N       -1.1548980        2.7209190       -0.3846190
 C        0.6191020        4.2875260        0.0898140
 C        2.2380410        2.4774510        0.8948660
 C        0.6847820        5.2327740        1.3309800
 C       -0.7872740        4.1788450       -0.5752480
 H        1.3484110        4.6488530       -0.6434840
 C       -0.5856360        5.2391370        2.1542700
 H        1.5611650        4.9742440        1.9400930
 H        0.8804330        6.2493560        0.9423240
 C       -1.7823070        5.2369420        1.5211190
 H       -0.5160450        5.2433490        3.2434940
 C       -1.8139210        5.1897310        0.0069560
 H       -2.7227280        5.2310730        2.0721800
 H       -2.8182900        4.9777370       -0.3747720
 H       -1.5381000        6.1773210       -0.4086660
 H       -0.7048530        4.3543080       -1.6597730
 C        2.3875420        2.1258650        2.2550080
 C        3.3905060        2.4730790        0.0490890
 C        3.6391530        1.7444220        2.7774510
 C        4.7722650        1.7347140        1.9432150
 H        3.7188090        1.4608830        3.8274230
 C        4.6440200        2.1053040        0.5914830
 H        5.5201130        2.0878990       -0.0538440
 C       -2.1466950        2.1781570       -1.2882140
 C       -1.6820980        1.7938990       -2.5723270
 C       -3.5394660        2.0735590       -1.0054690
 C       -2.5636210        1.3428980       -3.5700990
 C       -3.9459090        1.2750120       -3.2992990
 H       -2.1734920        1.0462860       -4.5442860
 C       -4.4217130        1.6328730       -2.0265430
 H       -5.4853260        1.5505710       -1.8092080
 H        1.5090570        2.1386750        2.8944230
 C        3.3890370        2.8880220       -1.4058550
 F        3.6234550        4.3062480       -1.5427270
 F        2.1984760        2.6484100       -2.1204140
 F        4.4175120        2.2767320       -2.1487120
 H        5.7473750        1.4416640        2.3326110
 H       -0.6120230        1.8401610       -2.7700930
 C       -4.1915270        2.3786270        0.3283550
 F       -3.3460950        2.3759070        1.4363360
 F       -5.2269940        1.4484500        0.6193620
 F       -4.8438410        3.6581840        0.3197780
 H       -4.6458160        0.9358360       -4.0631810
