97
M00000471_2D_DFT last geometry from G09 out file
 Ru        0.2841060       -0.2824470       -1.4307100
 C       -1.3882420       -1.0244940       -1.4514630
 Cl        0.8891120       -1.6728870        0.5163530
 Cl        0.4636090        0.3705550       -3.7833800
 H       -2.2442980       -0.7401670       -0.8358600
 H       -1.5189200       -1.9554620       -2.0436090
 C       -0.0921680        1.4386060       -0.6393660
 N        0.9034240        2.1559250        0.0599140
 N       -1.1800850        2.3089990       -0.7911360
 C        0.6469340        3.6443000        0.0503940
 C        1.8010360        1.5948440        1.0594490
 C       -0.8741640        3.7364520       -0.3310990
 H        0.7991890        4.0197640        1.0681210
 H       -0.9858260        4.3707100       -1.2211650
 C        1.4676700        1.7842240        2.4194020
 C        3.0344480        0.9381590        0.7720640
 C        2.3231230        1.3812200        3.4587630
 C        3.5691410        0.7692160        3.1847750
 H        2.0063550        1.5276330        4.4934350
 C        3.8942010        0.5541660        1.8304570
 H        4.8228860        0.0473430        1.5748250
 C       -2.2728380        2.0954700       -1.7361600
 C       -2.0566330        2.5029980       -3.0710880
 C       -3.5636910        1.5770100       -1.3939470
 C       -3.0547250        2.3998130       -4.0546310
 C       -4.3343950        1.8910000       -3.7382420
 H       -2.8203640        2.6942350       -5.0790250
 C       -4.5580450        1.4907520       -2.4041580
 H       -5.5300870        1.0896710       -2.1264530
 H       -1.0711740        2.8570620       -3.3533690
 C       -3.9293820        1.0841800       -0.0255930
 O       -5.3158530        1.1799140        0.1950650
 O       -3.1604540        0.6270740        0.8472800
 C       -5.8084160        0.6486560        1.4851490
 H       -6.8927610        0.8002810        1.4491850
 H       -5.5618170       -0.4176070        1.5828760
 H       -5.3625230        1.1996270        2.3245080
 C        1.6692220        4.4531820       -0.8813400
 C        3.1042130        4.3591100       -0.2779920
 C        1.6963240        3.9274990       -2.3418840
 C        1.3081970        5.9695760       -0.9178720
 H        3.1189930        4.6401520        0.7866820
 H        3.7739340        5.0506000       -0.8110710
 H        3.5338200        3.3585010       -0.3688590
 H        0.7607680        4.1478340       -2.8741810
 H        1.8711380        2.8495020       -2.3972230
 H        2.5026810        4.4303450       -2.8973990
 H        0.3132450        6.1619120       -1.3393060
 H        2.0346260        6.4898610       -1.5597420
 H        1.3582300        6.4332730        0.0767780
 C       -5.4358290        1.7950120       -4.7845900
 C       -6.2893530        3.0921000       -4.9019250
 H       -4.9923760        1.5746190       -5.7691330
 H       -6.1056610        0.9536430       -4.5443990
 C       -7.4066550        2.9869660       -5.9671380
 H       -6.7376780        3.3202640       -3.9199530
 H       -5.6278740        3.9406380       -5.1466410
 C       -8.2570870        4.2709520       -6.0885600
 H       -8.0654710        2.1353990       -5.7212930
 H       -6.9547580        2.7548080       -6.9476760
 H       -9.0403350        4.1573020       -6.8546160
 H       -7.6361270        5.1361980       -6.3709260
 H       -8.7538940        4.5127250       -5.1352940
 C       -1.8441860        4.3742800        0.7724030
 C       -1.9494090        3.5192980        2.0664280
 C       -1.3293710        5.7910450        1.1828060
 C       -3.2665900        4.6160250        0.1755690
 H       -2.0754040        2.4544770        1.8534130
 H       -2.8135900        3.8529680        2.6610870
 H       -1.0641120        3.6494840        2.7039400
 H       -2.0047470        6.1985800        1.9497050
 H       -1.3289160        6.4936930        0.3387990
 H       -0.3230640        5.7740210        1.6185970
 H       -3.2142910        5.1198430       -0.8019050
 H       -3.8389370        5.2691500        0.8514550
 H       -3.8462790        3.7013340        0.0491430
 H        0.5077480        2.2250700        2.6668190
 C        3.4018860        0.5546410       -0.6101770
 O        4.7705310        0.5077770       -0.8278040
 O        2.5898300        0.2699230       -1.5264090
 C        5.2127430        0.0227630       -2.1600650
 H        4.8696230       -1.0084250       -2.3189640
 H        4.8095490        0.6655480       -2.9532860
 H        6.3057110        0.0763040       -2.1207490
 C        4.5208050        0.3627860        4.3008670
 C        5.5208970        1.4879470        4.6990910
 H        3.9428420        0.0722790        5.1932400
 H        5.0946500       -0.5264820        3.9944230
 C        6.4862250        1.0671780        5.8327480
 H        6.1042810        1.7840150        3.8106930
 H        4.9554550        2.3825270        5.0118020
 C        7.4816560        2.1794390        6.2311710
 H        7.0486090        0.1705010        5.5178330
 H        5.8995150        0.7680470        6.7193190
 H        8.1511220        1.8426960        7.0384380
 H        6.9543080        3.0790200        6.5872080
 H        8.1107460        2.4768820        5.3769500
