107
M00000474_2D_DFT last geometry from G09 out file
 Ru        0.2809290        0.1552580       -0.7848540
 C       -1.2595690       -0.6493330       -1.3013600
 Cl        0.4483140       -0.7360710        1.4478530
 Cl        1.2291880        0.3856650       -3.0296540
 H       -2.2479330       -0.2222310       -1.4732070
 H       -1.1493490       -1.7402260       -1.4887120
 C       -0.0852340        2.0619510       -0.4520980
 N        0.8990740        2.8590110        0.1510690
 N       -1.1120040        2.8805190       -0.8917910
 C        0.6483370        4.3518810       -0.0878520
 C        1.8750190        2.4132850        1.1673720
 C       -0.8075930        4.3839720       -0.7125980
 H        0.6418290        4.8432160        0.8950380
 H       -0.7429890        4.7741720       -1.7307380
 C        1.6138710        2.6683640        2.5579380
 C        3.1403420        1.8369570        0.8279360
 C        2.6260890        2.4619560        3.5277680
 C        3.8920990        1.9360060        3.2086480
 H        2.3907230        2.6793480        4.5633430
 C        4.0935140        1.6155480        1.8526920
 H        5.0451380        1.1849150        1.5509970
 C       -2.3109680        2.3907170       -1.5713030
 C       -2.4767300        2.4989630       -2.9899000
 C       -3.3668950        1.7841230       -0.8084240
 C       -3.6783410        2.0550690       -3.5999510
 C       -4.7556620        1.5215130       -2.8656290
 H       -3.7727840        2.1683180       -4.6752630
 C       -4.5522520        1.3927400       -1.4743630
 H       -5.3448780        0.9682330       -0.8626350
 C       -1.4960850        3.1421060       -3.9599360
 C       -1.0595760        2.3468050       -5.1817860
 O       -1.0661070        4.3148580       -3.7827470
 H       -1.8703630        1.7650930       -5.6371540
 H       -0.6142720        3.0213550       -5.9230720
 H       -0.2964070        1.6231830       -4.8547930
 C       -3.3106580        1.5786230        0.7079160
 C       -3.8045220        0.2109880        1.2454710
 H       -3.9364150        2.3599900        1.1734220
 H       -2.2991050        1.7332750        1.0782630
 H       -4.8664840        0.0176530        1.0326560
 H       -3.6811490        0.1988750        2.3388120
 H       -3.2123770       -0.6216620        0.8445270
 C        1.8103960        5.0671380       -0.9471540
 C        3.1059010        5.1757580       -0.0820340
 C        2.1044540        4.3379220       -2.2875830
 C        1.4584060        6.5388210       -1.3271550
 H        3.5744510        4.2130160        0.1226010
 H        2.9005870        5.6635990        0.8843250
 H        3.8454400        5.7958510       -0.6105360
 H        1.2948490        4.4891380       -3.0102160
 H        2.2474360        3.2650190       -2.1678070
 H        3.0218160        4.7519890       -2.7335460
 H        2.2946720        6.9432670       -1.9168800
 H        1.3381550        7.1874070       -0.4500410
 H        0.5639300        6.6135270       -1.9531700
 C       -6.0951930        1.0800760       -3.5167970
 C       -6.3268370       -0.4423870       -3.2485480
 C       -7.2686110        1.9030300       -2.8930530
 C       -6.1167490        1.3044060       -5.0552120
 H       -5.5156490       -1.0461830       -3.6825240
 H       -7.2748090       -0.7684290       -3.7030130
 H       -6.3772210       -0.6692700       -2.1747460
 H       -7.1345710        2.9797120       -3.0762230
 H       -7.3447490        1.7539200       -1.8071620
 H       -8.2268870        1.5972990       -3.3400400
 H       -7.0870310        0.9817250       -5.4598540
 H       -5.3378490        0.7204570       -5.5679270
 H       -5.9872180        2.3645920       -5.3190650
 C       -1.9244200        5.3038900       -0.0026990
 C       -2.2151460        4.9855790        1.4852920
 C       -1.4753270        6.7993510       -0.0395410
 C       -3.2617620        5.2685140       -0.8111840
 H       -3.0763390        5.5852970        1.8188500
 H       -1.3676430        5.2602070        2.1264580
 H       -2.4393070        3.9368010        1.6654570
 H       -2.2603580        7.4045770        0.4376740
 H       -1.3480790        7.1753080       -1.0620840
 H       -0.5501240        6.9757520        0.5195890
 H       -3.8237790        4.3426650       -0.6710310
 H       -3.0865590        5.4070710       -1.8864950
 H       -3.9057790        6.0932700       -0.4700540
 C        0.2567060        2.9772770        3.1397010
 C        0.1611330        3.8332920        4.4135490
 O       -0.7924790        2.4853340        2.6552850
 H        0.9191750        4.6265430        4.4561490
 H       -0.8421500        4.2724890        4.4617920
 H        0.2784690        3.1994500        5.3072420
 C        3.5844120        1.4629230       -0.5864120
 C        4.2427420        0.0653440       -0.7294190
 H        4.3054580        2.2180900       -0.9440990
 H        2.7448370        1.5086100       -1.2792950
 H        3.6125070       -0.7233170       -0.2958650
 H        5.2322740        0.0101100       -0.2528050
 H        4.3771040       -0.1591140       -1.7971710
 C        5.0054870        1.6856870        4.2615150
 C        5.3451430        0.1603590        4.2992710
 C        6.2836520        2.4955140        3.8702810
 C        4.5828270        2.1195860        5.6935880
 H        4.4580880       -0.4332260        4.5652050
 H        6.1280520       -0.0368670        5.0475780
 H        5.7106590       -0.2034640        3.3292190
 H        6.0747520        3.5758500        3.8483710
 H        6.6674430        2.2075230        2.8818890
 H        7.0852840        2.3176750        4.6033100
 H        4.3428150        3.1923940        5.7456110
 H        5.4107250        1.9338880        6.3931730
 H        3.7144210        1.5498900        6.0564670
