57
Mol_000344_2D_DFT last geometry from G09 out file
 Ru        0.4945570        0.0907480        0.0334240
 C       -0.2464850       -0.2880130       -1.5811780
 Cl       -1.0565970       -0.7946770        1.6345600
 Cl        2.8035320        0.0900480       -0.6383920
 H       -0.5194150        0.4553130       -2.3342820
 H       -0.3052400       -1.3599470       -1.8584810
 C        0.0576640        1.9709210        0.1353440
 N        0.7811460        2.8751180        0.9168320
 N       -0.9864860        2.7088950       -0.4581310
 C        0.1789440        4.2364960        0.9284260
 C        2.0871620        2.6875820        1.5017210
 C       -0.8140550        4.2171250       -0.2635490
 H        0.9569200        4.9952150        0.7983560
 H       -0.3311950        4.4119440        1.8867000
 C       -2.1056800        5.0262630        0.0356390
 C       -0.2439170        4.9576170       -1.5127460
 C       -1.6792710        6.5041010       -0.1837820
 H       -2.5054620        4.8393800        1.0405070
 H       -2.8875760        4.7570000       -0.6887690
 C       -0.5051210        6.4627460       -1.2235650
 H       -2.5248100        7.1118780       -0.5367210
 H       -1.3410590        6.9534330        0.7620890
 H        0.3908750        6.9523710       -0.8145370
 H       -0.7598580        6.9995290       -2.1487340
 H       -0.7970420        4.6441880       -2.4035560
 H        0.8109600        4.7190880       -1.6891120
 C        3.2003230        3.1901860        0.7831020
 C        2.3458840        2.0591340        2.7584210
 C        4.5260580        3.0860560        1.2127200
 C        4.7705900        2.4260590        2.4320660
 H        5.3287000        3.4787010        0.5903800
 C        3.6962840        1.9199300        3.1824590
 H        3.8784060        1.4034550        4.1229020
 C       -2.2750990        2.1568110       -0.7967570
 C       -2.8277240        2.0625030       -2.1169730
 C       -3.1310980        1.7933710        0.2742100
 C       -4.1385010        1.5381750       -2.2795140
 C       -4.9051920        1.0907600       -1.1877730
 H       -4.5563360        1.4509860       -3.2805880
 C       -4.4043790        1.2329010        0.1185620
 H       -4.9752760        0.9395720        0.9980190
 F        2.9656990        3.8225590       -0.4507260
 C        1.3182900        1.5394660        3.7645820
 C       -0.0112860        2.2522090        3.9605170
 O        1.6367820        0.5702150        4.5016940
 H       -0.7036500        2.0197910        3.1441790
 H       -0.4581980        1.8990290        4.8971750
 H        0.1244650        3.3425180        4.0054420
 H        5.7932380        2.3063730        2.7902100
 C       -2.0841210        2.4590230       -3.3797390
 C       -2.8829440        3.1136300       -4.5113160
 O       -0.8526730        2.2474720       -3.5257990
 H       -3.6500300        3.8072570       -4.1412930
 H       -2.1840230        3.6417970       -5.1709480
 H       -3.3896620        2.3454010       -5.1182030
 F       -2.7066140        2.0605920        1.5819560
 H       -5.8906010        0.6544050       -1.3505300
