55
Mol_000115_2D_DFT last geometry from G09 out file
 Ru       -0.0139960       -0.3274980       -0.0799160
 C        1.7882950       -0.5468930       -0.1665840
 Cl       -0.5545530       -0.8999020       -2.3545670
 Cl       -0.5345640       -0.4420130        2.2800950
 H        2.5423720        0.2104730       -0.4091890
 H        2.1598310       -1.5817380       -0.0149350
 C       -0.1256040        1.5925580       -0.2677330
 N        0.8273610        2.5944080       -0.0866120
 N       -1.2882920        2.2157030       -0.7073050
 C        0.3612690        3.9016850       -0.6442640
 C        2.0952690        2.5444660        0.5920760
 C       -1.1614160        3.7003170       -0.7549670
 H        0.8184270        4.0841750       -1.6299020
 H        0.6360920        4.7213460        0.0309710
 H       -1.5707490        4.0986510       -1.6913560
 C        2.1915910        2.0775470        1.9252440
 C        3.2541330        3.0474390       -0.0449370
 C        3.4325380        2.0906350        2.5880270
 C        4.6073000        2.5886330        1.9667890
 H        3.4734570        1.7124160        3.6100840
 C        4.4863680        3.0698980        0.6400890
 H        5.3678620        3.4593530        0.1267320
 C       -2.5872310        1.6091550       -0.8901120
 C       -3.2268160        1.6883600       -2.1486330
 C       -3.2594960        0.9981240        0.1910980
 C       -4.5130460        1.1503920       -2.3232200
 C       -5.1984720        0.5103630       -1.2567830
 H       -4.9746570        1.2116350       -3.3092820
 C       -4.5432870        0.4465330       -0.0042700
 H       -5.0392680       -0.0367790        0.8396810
 H       -2.7019280        2.1311950       -2.9952650
 H       -2.7882720        0.9466650        1.1707090
 H       -1.7116910        4.1507300        0.0881940
 C       -6.5902620       -0.1078750       -1.4429080
 C       -6.5617240       -1.3042740       -2.4359470
 C       -7.6546770        0.9460030       -1.8574770
 H       -6.8999440       -0.5103770       -0.4636440
 H       -6.2889280       -0.9813550       -3.4518080
 H       -7.5526410       -1.7816500       -2.4896060
 H       -5.8319370       -2.0638650       -2.1188650
 H       -8.6520470        0.4822690       -1.9094670
 H       -7.4361330        1.3776230       -2.8458220
 H       -7.7002770        1.7715900       -1.1311500
 H        1.3078520        1.6902080        2.4265000
 H        3.2036250        3.4043500       -1.0743170
 C        5.9620520        2.6112230        2.6869890
 C        6.4649760        1.1795150        3.0257670
 C        5.9392990        3.5146150        3.9519610
 H        6.6942850        3.0528580        1.9895850
 H        5.7976760        0.6741360        3.7397180
 H        7.4685170        1.2219290        3.4770670
 H        6.5239160        0.5555670        2.1212730
 H        6.9426400        3.5684590        4.4024110
 H        5.2506090        3.1250000        4.7163940
 H        5.6218000        4.5384190        3.7028900
