79
M00000239_2D_DFT last geometry from G09 out file
 Ru       -0.0656120        0.0858090        0.5459180
 C       -1.3174240       -0.6958420       -0.5151660
 Cl       -1.3012990       -0.0772030        2.6169560
 Cl        1.8713820       -0.6032040       -0.7180010
 H       -1.9964210       -0.2384170       -1.2359180
 H       -1.3801420       -1.7985750       -0.3970010
 C       -0.1695670        1.9861720        0.1635150
 N        0.7041210        2.8992100        0.7403630
 N       -1.0543560        2.7256260       -0.6748110
 C        0.5133010        4.3214820        0.2227760
 C        1.9643250        2.4581150        1.3665610
 C       -0.7208160        4.1142430       -0.7288440
 H        1.3575540        4.5067110       -0.4498690
 C        3.1361830        2.3720390        0.5552400
 C        2.0019890        2.1684870        2.7633730
 C        4.3573180        1.9565790        1.1559520
 C        4.3906940        1.5725960        2.5273850
 C        3.2267430        1.7105520        3.3359120
 C       -2.2227510        2.1909800       -1.3838980
 C       -3.4690160        2.1272530       -0.6965460
 C       -2.0796860        1.7654090       -2.7374550
 C       -4.6269630        1.7367020       -1.4304730
 C       -4.5301320        1.4478410       -2.8221850
 C       -3.2566590        1.4134560       -3.4623990
 C        0.5871780        5.5637150        1.2278690
 C       -0.5047070        5.6151490        2.3315880
 C        1.9892540        5.5817560        1.9197350
 C        0.5359080        6.8689480        0.3651970
 H       -0.2606990        6.4284010        3.0318590
 H       -0.5487800        4.6881470        2.9102930
 H       -1.5011430        5.8163850        1.9289430
 H        2.1165580        6.5539350        2.4179540
 H        2.8089200        5.4742560        1.1950850
 H        2.1032700        4.8049140        2.6783490
 H        0.6357210        7.7343450        1.0367240
 H       -0.3973470        6.9849900       -0.1911850
 H        1.3686080        6.9076480       -0.3528570
 Cl       -0.1515080        4.7280760       -2.5215230
 Cl       -2.2700010        5.1961050       -0.4871880
 C        3.1205740        2.6739530       -0.9366450
 H        2.1145660        2.6763950       -1.3566050
 H        3.6780080        1.9090500       -1.4887110
 H        3.5882950        3.6473840       -1.1620940
 C        0.7938410        2.3744940        3.6616890
 H        0.9717470        3.2000840        4.3699980
 H        0.5709720        1.4773870        4.2494390
 H       -0.1058350        2.6000740        3.0920170
 C        5.6264660        1.8913970        0.3129740
 H        5.7184160        0.9180250       -0.1995370
 H        6.5283820        2.0289540        0.9202300
 H        5.6414710        2.6654360       -0.4634830
 C        5.6744710        1.0011650        3.1218840
 H        6.2085070        0.3773270        2.3943160
 H        5.4754820        0.3726170        3.9959650
 H        6.3695520        1.7970090        3.4419280
 C        3.2968670        1.3768110        4.8236290
 H        2.4813340        1.8319830        5.3923850
 H        4.2368220        1.7246310        5.2726850
 H        3.2372800        0.2877580        4.9925280
 C       -3.5899200        2.4280020        0.7898140
 H       -2.6532260        2.7733680        1.2267430
 H       -3.8794140        1.5235640        1.3442980
 H       -4.3503650        3.1977270        0.9810830
 C       -0.7126180        1.5961450       -3.3864360
 H       -0.5934680        2.2410840       -4.2671650
 H       -0.5728030        0.5543150       -3.7136320
 H        0.1030440        1.8231950       -2.7010430
 C       -5.9800740        1.6492720       -0.7320560
 H       -6.5633770        2.5771260       -0.8657590
 H       -5.8788070        1.4870910        0.3455630
 H       -6.5880220        0.8253640       -1.1273490
 C       -5.7941970        1.1452150       -3.6202220
 H       -5.6716390        1.3750220       -4.6841490
 H       -6.6488640        1.7301070       -3.2585890
 H       -6.0766650        0.0802280       -3.5484360
 C       -3.1656570        0.9994270       -4.9282920
 H       -2.1388020        0.8026660       -5.2465400
 H       -3.5596790        1.7903800       -5.5886870
 H       -3.7505640        0.0904740       -5.1308640
