46
M00000236_2D_DFT last geometry from G09 out file
 Ru       -0.1336040       -0.2886820       -0.0426470
 C        1.6760050       -0.4546980       -0.0010110
 Cl       -0.4573390       -0.7323640       -2.3840950
 Cl       -0.8242740       -0.5278260        2.2722600
 H        2.4255330        0.3307520       -0.1499900
 H        2.0635830       -1.4875930        0.1215550
 C       -0.3106760        1.6315520       -0.0995620
 N        0.5913920        2.6506890        0.1957180
 N       -1.4907320        2.2460730       -0.5162260
 C        0.0894480        3.9741990       -0.2816720
 C        1.8326770        2.6022760        0.9226750
 C       -1.4366670        3.7391050       -0.4279350
 H        0.5410770        4.2308870       -1.2524940
 H        0.3291380        4.7603800        0.4419700
 H       -1.8006510        4.1940550       -1.3552630
 C        1.8975630        2.0338650        2.2182540
 C        2.9857220        3.2072830        0.3628600
 C        3.1145090        2.0517740        2.9293910
 C        4.2653720        2.6534540        2.3741950
 H        3.1568510        1.6018570        3.9226220
 C        4.1936920        3.2346660        1.0894380
 H        5.0763450        3.7000340        0.6476360
 C       -2.6943380        1.5881590       -0.9781180
 C       -3.2051290        1.9012540       -2.2595480
 C       -3.3817040        0.6682440       -0.1532030
 C       -4.3907470        1.2935900       -2.7128910
 C       -5.0707710        0.3602410       -1.8989620
 H       -4.7712530        1.5324980       -3.7072290
 C       -4.5585800        0.0484790       -0.6231670
 H       -5.0747710       -0.6693410        0.0163050
 H       -2.6636520        2.5856790       -2.9122610
 H       -3.0128960        0.4432230        0.8453040
 C       -2.2701280        4.3377560        0.7132220
 C       -2.4690030        3.6997300        1.9596240
 N       -2.7677290        5.5813480        0.4355240
 C       -3.2120400        4.3707420        2.9527750
 H       -2.0636820        2.7087260        2.1515430
 C       -3.7314830        5.6533770        2.6764970
 H       -3.3826410        3.8984500        3.9212110
 C       -3.4804770        6.2162670        1.4068340
 H       -4.3141810        6.2013720        3.4172130
 H       -3.8620240        7.2053990        1.1459210
 H       -5.9836460       -0.1177070       -2.2573850
 H        1.0152480        1.5696420        2.6515040
 H        2.9458600        3.6386420       -0.6377720
 H        5.2016010        2.6710900        2.9339790
