73
M00000237_2D_DFT last geometry from G09 out file
 Ru        0.7593960       -0.1458980       -0.3019890
 C       -0.2551490       -0.5641190       -1.7501990
 Cl       -0.4305720       -1.0958000        1.5471130
 Cl        2.8616950        0.1648480       -1.4455120
 H       -0.8212400        0.1119480       -2.3984150
 H       -0.2353190       -1.6314980       -2.0520500
 C        0.3208550        1.7239540       -0.0705650
 N        1.0871940        2.5771100        0.7199880
 N       -0.6332270        2.5180090       -0.7161950
 C        2.0233720        2.1303500        1.7267310
 C        0.9304530        4.0544410        0.2936680
 C        3.3901310        1.9923360        1.3844000
 C        1.6311070        1.8424170        3.0729020
 C        4.3464420        1.5680200        2.3190190
 C        3.9553380        1.2608140        3.6409720
 H        5.3899370        1.4537680        2.0294330
 C        2.6003350        1.4041710        4.0042860
 H        2.3025610        1.1702330        5.0222940
 C       -0.4948400        3.9585490       -0.3132030
 H       -1.2627850        4.1892600        0.4418520
 H       -0.6316650        4.6178340       -1.1690000
 C       -1.9247090        2.0696580       -1.1610710
 C       -2.4722950        2.4045740       -2.4401990
 C       -2.7254110        1.3302680       -0.2551380
 C       -3.7927740        2.0185920       -2.7538550
 C       -4.5806980        1.2850220       -1.8405480
 H       -4.2210550        2.2657740       -3.7223060
 C       -4.0292840        0.9324440       -0.5864970
 H       -4.6208270        0.3626180        0.1262510
 C       -1.7022580        3.1479190       -3.5086890
 F       -2.2505850        2.9704760       -4.7954250
 F       -0.3457750        2.7672660       -3.6106870
 F       -1.6925680        4.5673650       -3.3004350
 H       -2.3101310        1.0635210        0.7122750
 C        0.9703160        4.9807190        1.5447130
 C        0.7091940        6.4932630        1.3218130
 H        1.9531400        4.8737110        2.0292790
 H        0.2220650        4.6179650        2.2600340
 C        0.5771550        7.2474630        2.6648710
 H       -0.2126380        6.6444860        0.7362880
 H        1.5292940        6.9436090        0.7446770
 H        1.4876560        7.1409340        3.2756000
 H        0.4125970        8.3226690        2.4949770
 H       -0.2684390        6.8671120        3.2588830
 C        2.0614850        4.3644890       -0.7619200
 C        1.8279400        5.4779330       -1.8190900
 H        2.2710580        3.4382260       -1.3144020
 H        2.9757770        4.6080080       -0.1977540
 C        3.1098380        5.7403020       -2.6444740
 H        1.5054160        6.4193470       -1.3546580
 H        1.0303040        5.1769800       -2.5128660
 H        3.9343900        6.0989610       -2.0077290
 H        3.4507730        4.8250900       -3.1531910
 H        2.9264930        6.5030050       -3.4169290
 C       -5.9708940        0.9116910       -2.2547250
 O       -6.6268550        0.1838720       -1.2644830
 O       -6.4945390        1.2093120       -3.3523110
 C       -8.0120800       -0.2459400       -1.5648330
 H       -8.3312000       -0.7927900       -0.6715050
 H       -8.6526030        0.6284690       -1.7428850
 H       -8.0258360       -0.8949680       -2.4508440
 H        3.6888390        2.1783230        0.3591370
 C        0.2510850        2.0505280        3.6701460
 F       -0.8157460        2.2091950        2.7696100
 F        0.2321950        3.2377540        4.4824600
 F       -0.1192860        1.0080250        4.5442450
 C        5.0013920        0.7954980        4.6095810
 O        4.4587630        0.4984120        5.8570360
 O        6.2185280        0.6841750        4.3421720
 C        5.3993220        0.0138920        6.8935650
 H        4.7732580       -0.1597330        7.7748770
 H        5.8824740       -0.9155400        6.5633510
 H        6.1668210        0.7730110        7.0967800
