89
M00000220_2D_DFT last geometry from G09 out file
 Ru        0.4450020        0.0662180       -0.8926710
 C       -1.1106290       -0.8064060       -0.4891480
 Cl        1.4925590       -0.9433490        1.1187300
 Cl        0.1736080        0.2452280       -3.3119150
 H       -1.8896460       -0.4867590        0.2043780
 H       -1.2101540       -1.8455770       -0.8701910
 C        0.0334050        1.8881770       -0.3598650
 N        1.0347080        2.7566630        0.1208700
 N       -1.1078010        2.6740300       -0.5737540
 C        0.6855210        4.2203450       -0.0682940
 C        2.1174710        2.3813270        1.0011280
 C       -0.8528860        4.1738990       -0.3989280
 H        0.8352350        4.7273820        0.8914630
 H       -1.0112710        4.6224770       -1.3863840
 C        2.0408810        2.6745440        2.3813450
 C        3.3606330        1.7907860        0.6099260
 C        3.0541400        2.4738130        3.3190310
 C        4.2981680        1.9192630        2.9042260
 H        2.8401300        2.7277860        4.3526390
 C        4.4133360        1.5849290        1.5238700
 H        5.3129690        1.1144720        1.1457460
 C       -2.2740750        2.2207210       -1.2988780
 C       -2.3779860        2.4846760       -2.6853720
 C       -3.4295590        1.5793690       -0.7358690
 C       -3.4228400        2.0903890       -3.5180110
 C       -4.5211700        1.3725640       -2.9680290
 H       -3.3429300        2.3296630       -4.5736070
 C       -4.5037990        1.1684120       -1.5571920
 H       -5.3418780        0.6882360       -1.0682020
 F       -1.3612770        3.2283960       -3.3062950
 C       -3.5854060        1.3331560        0.7382480
 O       -4.9443350        1.3313600        1.1092700
 O       -2.6823800        1.1537270        1.5808000
 C       -5.2238500        1.0543000        2.5358750
 H       -6.3160000        1.0924210        2.6143830
 H       -4.8414370        0.0640270        2.8199050
 H       -4.7571260        1.8165630        3.1742560
 C        1.6350520        4.9611000       -1.1328120
 C        3.0533330        5.1581130       -0.5097230
 C        1.7592600        4.1870630       -2.4741200
 C        1.1159990        6.3936350       -1.4669010
 H        2.9981350        5.6443150        0.4773980
 H        3.6543920        5.8084490       -1.1632600
 H        3.6026720        4.2206330       -0.3935560
 H        2.5169430        4.6758920       -3.1062290
 H        0.8178680        4.1811170       -3.0336160
 H        2.0564270        3.1458370       -2.3320290
 H        0.1166320        6.3906310       -1.9193260
 H        1.7977450        6.8475010       -2.2017310
 H        1.0992960        7.0496200       -0.5869150
 N       -5.5687850        0.9127460       -3.7662240
 C       -5.5239510        1.1073160       -5.2231510
 C       -6.6991370        0.1894570       -3.1656440
 H       -5.5389420        2.1771080       -5.4964030
 H       -6.3986880        0.6337290       -5.6826770
 H       -4.6223190        0.6514360       -5.6663370
 H       -7.2363230        0.8086520       -2.4269380
 H       -6.3733390       -0.7386070       -2.6644180
 H       -7.4128130       -0.0867710       -3.9499350
 C       -1.8398580        4.9610490        0.5896810
 C       -1.8920550        4.3825190        2.0305700
 C       -1.4003240        6.4547480        0.7094740
 C       -3.2803190        5.0052670       -0.0153870
 H       -2.7757790        4.7824460        2.5525730
 H       -1.0113550        4.6745730        2.6129410
 H       -1.9476330        3.2928330        2.0431740
 H       -0.3876840        6.5673130        1.1151890
 H       -2.0838130        6.9618830        1.4068720
 H       -1.4534530        6.9865820       -0.2496650
 H       -3.8070370        4.0512170        0.0512260
 H       -3.2688480        5.3139990       -1.0722630
 H       -3.8813920        5.7445800        0.5354730
 F        0.8491980        3.2222440        2.8890560
 C        3.5427480        1.2591220       -0.7633650
 O        4.8513880        1.3179890       -1.2173110
 O        2.6322350        0.7651430       -1.4726020
 C        5.1158140        0.7048320       -2.5445880
 H        4.5064510        1.1914270       -3.3168380
 H        6.1843250        0.8736560       -2.7146070
 H        4.8798040       -0.3675530       -2.5188180
 N        5.3419600        1.7029140        3.8054240
 C        5.1493460        1.9822360        5.2356420
 C        6.5855650        1.0580980        3.3574550
 H        4.8964360        3.0417330        5.4103450
 H        6.0776500        1.7701140        5.7778630
 H        4.3499470        1.3599130        5.6760880
 H        7.0696590        1.6315940        2.5497470
 H        6.4126260        0.0293420        2.9946710
 H        7.2906070        1.0058840        4.1948460
