79
M00000218_2D_DFT last geometry from G09 out file
 Ru        0.2851500        0.3099580       -0.7979500
 C       -1.2435940       -0.4956910       -1.3491310
 Cl        0.4351050       -0.4937800        1.4721600
 Cl        1.1570140        0.6365300       -3.0444930
 H       -2.2240000       -0.0801030       -1.5827510
 H       -1.1157750       -1.5845120       -1.5370650
 C       -0.0875870        2.1791800       -0.4044580
 N        0.9706990        3.0094530        0.0053020
 N       -1.2153600        2.9649050       -0.5875780
 C        0.6205540        4.4924970       -0.1553300
 C        2.0049030        2.6003700        0.9639230
 C       -0.9194300        4.4702330       -0.4937820
 H        0.7696730        4.9667150        0.8218090
 H       -1.0519850        4.8601780       -1.5090350
 C        1.7024840        2.8114440        2.3381300
 C        3.2998370        2.0518670        0.6697620
 C        2.5749070        2.6026840        3.4066270
 C        3.8422740        2.1201090        3.0636650
 H        2.2695940        2.7795090        4.4347250
 C        4.2007420        1.8364740        1.7464290
 H        5.1885870        1.4259530        1.5555860
 C       -2.4310590        2.4814340       -1.2135840
 C       -2.6014280        2.7219430       -2.6028970
 C       -3.4891230        1.7982550       -0.5219390
 C       -3.7283290        2.3556140       -3.3450230
 C       -4.7402660        1.7037120       -2.6303250
 H       -3.7995160        2.5604130       -4.4103300
 C       -4.6392390        1.4222460       -1.2648900
 H       -5.4630710        0.9062010       -0.7784600
 F       -1.5796440        3.3799430       -3.3039540
 C       -3.4692340        1.4392820        0.9776900
 C       -3.5532280       -0.0932050        1.2384140
 C       -4.6239750        2.1445360        1.7513160
 H       -2.5143690        1.7752120        1.3961130
 H       -4.4716360       -0.5331120        0.8221710
 H       -3.5592580       -0.2731310        2.3234750
 H       -2.6881740       -0.6245600        0.8294370
 H       -5.6060250        1.7454350        1.4579990
 H       -4.6403390        3.2285630        1.5915560
 H       -4.5042110        1.9643790        2.8300220
 C        1.5729420        5.2561950       -1.1981640
 C        2.9368900        5.5343560       -0.4953200
 C        1.7750880        4.4524800       -2.5110430
 C        1.0266840        6.6568040       -1.6171100
 H        2.8019930        6.1954030        0.3757040
 H        3.6218030        6.0425440       -1.1901780
 H        3.4292980        4.6251640       -0.1471600
 H        0.8343980        4.3303370       -3.0624700
 H        2.1792690        3.4551170       -2.3402670
 H        2.4730300        4.9938670       -3.1671370
 H        0.9399610        7.3487430       -0.7720590
 H        0.0599970        6.6056150       -2.1339950
 H        1.7414320        7.0994720       -2.3265930
 F       -5.8997160        1.3128020       -3.3180280
 C       -1.9052380        5.3349010        0.4301850
 C       -2.0373700        4.8170130        1.8879550
 C       -1.4168070        6.8138580        0.5373690
 C       -3.3119060        5.4189480       -0.2452590
 H       -2.1873680        3.7388960        1.9447950
 H       -2.8942910        5.3083940        2.3725220
 H       -1.1476140        5.0559400        2.4805230
 H       -2.1081540        7.3544180        1.2006950
 H       -1.4202900        7.3302860       -0.4296440
 H       -0.4172500        6.8994920        0.9802280
 H       -3.2353710        5.7615610       -1.2887200
 H       -3.9314230        6.1512420        0.2934090
 H       -3.8522150        4.4703860       -0.2411170
 F        0.4168230        3.2610560        2.6753440
 C        3.7820690        1.5964150       -0.7185740
 C        4.0533920        0.0603960       -0.7281820
 C        5.0534860        2.3427330       -1.2141220
 H        2.9865010        1.7843570       -1.4438760
 H        4.2177620       -0.2737380       -1.7618530
 H        3.2104690       -0.5104370       -0.3183260
 H        4.9461950       -0.1964290       -0.1391990
 H        5.3201860        1.9733520       -2.2156590
 H        5.9166510        2.1646740       -0.5559280
 H        4.9027810        3.4259610       -1.2883140
 F        4.7751460        1.8948900        4.0882270
