103
M00000175_2D_DFT last geometry from G09 out file
 Ru        0.6886570       -0.2238320       -0.9222460
 C       -0.5515970       -0.9228540       -2.0498540
 Cl        0.1615990       -1.5223120        1.0489000
 Cl        2.2936410        0.4414920       -2.6083270
 H       -1.4824210       -0.4834980       -2.4151340
 H       -0.3039000       -1.9388950       -2.4268580
 C       -0.0120750        1.5370150       -0.4180260
 N        0.7232610        2.3870820        0.4105520
 N       -1.1776720        2.2012820       -0.7667380
 C       -0.0028830        3.6841960        0.7213690
 C        1.8708790        1.9696100        1.2196900
 C       -1.1963950        3.6487040       -0.2812920
 H       -0.3790450        3.5882680        1.7470410
 H       -0.9466630        4.2586650       -1.1579280
 C        1.6639760        1.4119130        2.5245650
 C        3.2015820        2.1629950        0.7292530
 C        2.7931060        0.9807440        3.2576510
 C        4.1123960        1.1043840        2.7751970
 H        2.6284340        0.5092470        4.2283890
 C        4.2878500        1.7111390        1.5151830
 H        5.2974270        1.8358580        1.1177610
 C       -2.2032190        1.7758470       -1.7045800
 C       -2.1717750        2.2243200       -3.0615560
 C       -3.2894190        0.9751320       -1.2283970
 C       -3.2732450        1.9095530       -3.8947590
 C       -4.3740960        1.1491010       -3.4477570
 H       -3.2650670        2.2623190       -4.9265970
 C       -4.3481220        0.6764080       -2.1157250
 H       -5.1732130        0.0606640       -1.7528030
 C       -1.0036850        3.0154110       -3.6553730
 C       -0.3992060        2.4161200       -4.9575570
 H       -1.3411790        4.0451620       -3.8752170
 H       -0.1919660        3.0947140       -2.9248290
 C        0.7873040        3.2508310       -5.4962870
 H       -0.0538740        1.3916130       -4.7543290
 H       -1.1705620        2.3474690       -5.7416170
 C        1.3987030        2.6678010       -6.7895410
 H        1.5711060        3.3046710       -4.7223290
 H        0.4538800        4.2878620       -5.6845720
 H        0.6530140        2.6163860       -7.5997170
 H        1.7826110        1.6500840       -6.6184410
 H        2.2378420        3.2862310       -7.1457210
 C       -3.3238520        0.3950350        0.1749080
 H       -4.3140930       -0.0251240        0.3959560
 H       -3.0935390        1.1427920        0.9414020
 H       -2.5830900       -0.4078460        0.2924080
 C        0.9358260        4.9483870        0.7108130
 C        0.5189210        5.9849990        1.7889750
 C        1.1335930        5.6436700       -0.6594720
 H        1.9177590        4.5714430        1.0294810
 H       -0.4578550        6.4421600        1.5799280
 H        1.2588240        6.7988480        1.8302830
 H        0.4754540        5.5302070        2.7902370
 H        1.9690820        6.3570460       -0.5915230
 H        0.2460760        6.2162930       -0.9653250
 H        1.3762170        4.9334070       -1.4598540
 C       -5.5595850        0.8637900       -4.3611420
 C       -6.6792720        1.9432930       -4.2767880
 H       -5.9989070       -0.1150530       -4.1083340
 H       -5.2179980        0.7956510       -5.4069230
 C       -7.8752740        1.6430920       -5.2064410
 H       -6.2516750        2.9276280       -4.5310060
 H       -7.0313210        2.0176610       -3.2342880
 H       -8.3462830        0.6793070       -4.9548680
 H       -8.6466290        2.4245780       -5.1215840
 H       -7.5609780        1.5962570       -6.2614560
 C       -2.6135220        4.1396630        0.2045410
 C       -2.9132980        5.5789780       -0.2966380
 C       -2.9103640        4.0232010        1.7201580
 H       -3.3360950        3.4920790       -0.3116570
 H       -3.9439360        5.8622490       -0.0340370
 H       -2.8216720        5.6493300       -1.3913100
 H       -2.2438680        6.3280080        0.1486200
 H       -3.9816750        4.2055840        1.8960140
 H       -2.3545130        4.7638040        2.3119290
 H       -2.6810180        3.0273870        2.1194210
 C        0.3001230        1.2353750        3.1913640
 C        0.0900750        2.1306070        4.4478800
 H       -0.5139210        1.4032460        2.4792750
 H        0.2063460        0.1838130        3.4985770
 C       -1.2336090        1.8263390        5.1909750
 H        0.9299030        1.9850900        5.1463400
 H        0.1141060        3.1962490        4.1627350
 C       -1.4530290        2.7111190        6.4384070
 H       -1.2418650        0.7639210        5.4910410
 H       -2.0849180        1.9550500        4.5002460
 H       -2.3996120        2.4597960        6.9425570
 H       -1.4901370        3.7796210        6.1708100
 H       -0.6397620        2.5786480        7.1699490
 C        3.5387560        2.8671820       -0.5745580
 H        3.9644660        3.8632000       -0.3669810
 H        2.6745650        2.9851480       -1.2271090
 H        4.2904350        2.2985850       -1.1361140
 C        5.3028030        0.6275300        3.5972040
 C        5.8686230        1.7136360        4.5592430
 H        6.1121740        0.3001890        2.9245880
 H        5.0137260       -0.2527630        4.1941760
 C        7.0741650        1.2156890        5.3861790
 H        5.0671000        2.0474010        5.2394330
 H        6.1647750        2.5983990        3.9710240
 H        7.9064840        0.9062090        4.7338650
 H        7.4488790        2.0070670        6.0543880
 H        6.8007210        0.3507440        6.0116330
