91
M00000254_2D_DFT last geometry from G09 out file
 Ru        0.1178750        0.1608000       -0.2825780
 C       -1.1084290       -0.6113100       -1.3749730
 Cl       -0.9617620       -0.0951170        1.8689730
 Cl        1.8756870       -0.0014490       -2.0119450
 H       -1.7275440       -0.1863280       -2.1675050
 H       -1.1448320       -1.7194920       -1.2724730
 C       -0.1521270        2.0992960       -0.3480230
 N        0.6552870        2.9284890        0.4249590
 N       -1.0102940        2.8947140       -1.0777850
 C        0.5251630        4.3920370        0.0453260
 C        1.5794550        2.3829100        1.4075090
 C       -0.7806000        4.3903430       -0.8465250
 H        0.3433820        4.9436260        0.9685910
 H       -0.5507140        4.8112110       -1.8285490
 C        1.4731480        2.5551370        2.8285510
 C        2.6199120        1.5523940        0.9278890
 C        2.4070150        1.8976540        3.6700540
 C        3.4418990        1.0693660        3.1854950
 H        2.2948780        2.0279680        4.7444220
 C        3.5237380        0.9021170        1.7869070
 H        4.2942260        0.2641000        1.3501660
 C       -2.0892780        2.3641930       -1.8821780
 C       -2.0946100        2.3476410       -3.3096640
 C       -3.1872020        1.7741200       -1.2090590
 C       -3.2158450        1.8087520       -3.9933210
 C       -4.3389890        1.2819560       -3.3199070
 H       -3.1912650        1.7933730       -5.0818620
 C       -4.2910460        1.2550430       -1.9048360
 H       -5.1137200        0.8137940       -1.3392770
 C       -0.9539970        2.8528670       -4.1413910
 O       -0.7235660        2.0061070       -5.2251020
 O       -0.2830100        3.8897020       -3.9417080
 C        0.4212190        2.3456070       -6.1029750
 H        0.3010890        3.3526170       -6.5255290
 H        1.3568930        2.2918520       -5.5308540
 H        0.4006500        1.5815060       -6.8870460
 H       -3.1509180        1.6936270       -0.1264560
 C        1.8472890        5.0140730       -0.6139610
 C        2.4039910        4.1770720       -1.7974340
 C        1.5608770        6.4537800       -1.1435210
 C        2.9496740        5.1718200        0.4819960
 H        2.6245110        3.1435720       -1.5159900
 H        3.3429170        4.6296530       -2.1524270
 H        1.7073140        4.1547410       -2.6414500
 H        2.4909780        6.8636440       -1.5647110
 H        1.2354940        7.1314150       -0.3433930
 H        0.8122700        6.4710060       -1.9453890
 H        3.3564580        4.2130280        0.8170320
 H        2.5683120        5.7096980        1.3634700
 H        3.7887390        5.7558640        0.0744770
 C       -5.5478850        0.7655950       -4.0866000
 C       -6.6370810        1.8541720       -4.3226150
 H       -6.0055180       -0.0741060       -3.5386600
 H       -5.2299250        0.3698110       -5.0646220
 C       -7.8596560        1.3193760       -5.0993510
 H       -6.1899790        2.6991280       -4.8724690
 H       -6.9645100        2.2556070       -3.3490540
 H       -8.3499280        0.4948440       -4.5574710
 H       -8.6080510        2.1131710       -5.2485680
 H       -7.5698310        0.9416410       -6.0929120
 C       -2.0408030        5.2114510       -0.2909490
 C       -2.6967560        4.5886000        0.9715610
 C       -1.6015070        6.6632010        0.0826050
 C       -3.1113120        5.3749740       -1.4184170
 H       -2.0064250        4.5797700        1.8192520
 H       -3.0451450        3.5659890        0.8034210
 H       -3.5737860        5.1893030        1.2591180
 H       -2.4854190        7.2154740        0.4347960
 H       -1.1973630        7.2069670       -0.7806840
 H       -0.8633960        6.6893410        0.8930240
 H       -3.6379930        4.4446990       -1.6481460
 H       -2.6606990        5.7526420       -2.3488260
 H       -3.8690740        6.1057590       -1.0972940
 C        0.4333480        3.3876360        3.5094340
 O        0.1031020        2.8641970        4.7609090
 O       -0.0849570        4.4455440        3.0815780
 C       -0.9105430        3.6044960        5.5433600
 H       -1.0012770        3.0396210        6.4772320
 H       -0.5790760        4.6348470        5.7338760
 H       -1.8672210        3.6217330        5.0040760
 H        2.7334410        1.4168570       -0.1425780
 C        4.4293860        0.4053940        4.1335950
 C        5.6816940        1.2812780        4.4346600
 H        4.7659070       -0.5526090        3.7056250
 H        3.9293400        0.1674590        5.0863550
 C        6.6758090        0.5952660        5.3966310
 H        5.3556890        2.2433220        4.8644560
 H        6.1913200        1.5216790        3.4865720
 H        7.0472090       -0.3540620        4.9787110
 H        7.5474990        1.2405640        5.5876120
 H        6.2049800        0.3720760        6.3674370
