85
M00000257_2D_DFT last geometry from G09 out file
 Ru       -0.0489090        0.1402960        0.1532660
 C       -1.5936880       -0.5427240       -0.5140020
 Cl       -0.4325330       -0.2719610        2.4941090
 Cl        1.4028840       -0.0054450       -1.7874850
 H       -2.5131690       -0.0284120       -0.8027490
 H       -1.6033560       -1.6508740       -0.6004520
 C       -0.3017450        2.0745700        0.1066060
 N        0.6349090        2.9100520        0.6930490
 N       -1.2483470        2.8817890       -0.5046110
 C        0.3068660        4.3710740        0.5476090
 C        1.7864260        2.4795680        1.4620390
 C       -0.8652340        4.3411760       -0.4810810
 H       -0.0369080        4.7487590        1.5141970
 H       -0.4946450        4.5777900       -1.4838830
 C        1.8962400        2.5553500        2.8881350
 C        2.8968260        2.0118700        0.7246480
 C        3.1177680        2.1639510        3.4899530
 C        4.2264650        1.6848780        2.7585050
 H        3.1618430        2.2258780        4.5752620
 C        4.0879590        1.6081410        1.3555010
 H        4.9114830        1.2375660        0.7424310
 C       -2.4172290        2.4763740       -1.2419550
 C       -2.4189420        2.2235810       -2.6479610
 C       -3.6275890        2.3450400       -0.5277270
 C       -3.6287360        1.8346680       -3.2743770
 C       -4.8460250        1.7100960       -2.5656460
 H       -3.5991850        1.6250560       -4.3409420
 C       -4.8211020        1.9745060       -1.1756700
 H       -5.7376630        1.8842740       -0.5898750
 C       -1.1857240        2.3702680       -3.4933640
 O       -1.1810950        1.4522350       -4.5375000
 O       -0.2741890        3.2141550       -3.3291640
 C        0.0196890        1.4397750       -5.4073180
 H       -0.1841350        0.6542340       -6.1426100
 H        0.1519610        2.4151780       -5.8957200
 H        0.9041130        1.1958110       -4.8064020
 H       -3.6129810        2.5276370        0.5450360
 C        1.4859860        5.2345460        0.0990980
 C        2.1602990        5.0390480       -1.1315700
 N        1.8325220        6.2289580        0.9726090
 C        3.2304240        5.8919060       -1.4654690
 H        1.8586770        4.2418020       -1.8090540
 C        3.5968170        6.9191820       -0.5688060
 H        3.7674960        5.7568730       -2.4055420
 C        2.8673280        7.0476760        0.6318840
 H        4.4201950        7.5989920       -0.7901150
 H        3.1117030        7.8278210        1.3557360
 C       -6.1474360        1.2945250       -3.2637950
 C       -6.0581490       -0.1409750       -3.8540740
 C       -6.5870590        2.3237310       -4.3425800
 H       -6.9369810        1.2779020       -2.4936560
 H       -5.7935890       -0.8742780       -3.0775620
 H       -5.3019000       -0.2066570       -4.6503540
 H       -7.0265880       -0.4369970       -4.2858450
 H       -5.8632800        2.3796300       -5.1693760
 H       -6.6879970        3.3317890       -3.9128930
 H       -7.5602560        2.0363250       -4.7694650
 C       -1.9965310        5.3203490       -0.1686770
 C       -2.3581540        6.2883500       -1.1360050
 N       -2.6076140        5.2542460        1.0527370
 C       -3.3717030        7.2221950       -0.8370400
 H       -1.8531760        6.3090500       -2.1018320
 C       -4.0025960        7.1599780        0.4219970
 H       -3.6600720        7.9784610       -1.5683910
 C       -3.5869390        6.1582460        1.3266170
 H       -4.7892660        7.8617430        0.6999680
 H       -4.0505140        6.0751250        2.3121140
 C        0.8284370        2.9444280        3.8772720
 O       -0.3804960        3.2836460        3.2969840
 O        1.0011850        2.9455840        5.1203100
 C       -1.5121290        3.5266070        4.2181630
 H       -2.3255010        3.8402550        3.5591040
 H       -1.7583750        2.5972930        4.7491690
 H       -1.2573010        4.3103130        4.9445100
 H        2.8165420        1.9561080       -0.3569550
 C        5.5224980        1.2463620        3.4507030
 C        5.2968270        0.0074920        4.3629750
 C        6.1935910        2.4100360        4.2322320
 H        6.2260950        0.9402390        2.6578370
 H        4.6203710        0.2392160        5.1987980
 H        6.2536410       -0.3339160        4.7879340
 H        4.8563160       -0.8266450        3.7966510
 H        5.5618000        2.7577000        5.0629040
 H        6.3890080        3.2703940        3.5742670
 H        7.1542430        2.0800650        4.6574310
