85
M00000255_2D_DFT last geometry from G09 out file
 Ru        0.2743210        0.1405810       -0.3729500
 C       -1.2574860       -0.6796360       -0.8903960
 Cl        0.2081230       -0.3912040        1.9842390
 Cl        1.2513280        0.1083960       -2.6202070
 H       -2.2012930       -0.2591780       -1.2410790
 H       -1.1738290       -1.7892330       -0.9016760
 C       -0.0372030        2.0755180       -0.3007280
 N        0.9887850        2.9206220        0.1423620
 N       -1.0914620        2.8495700       -0.7610560
 C        0.7163160        4.3818030       -0.2173070
 C        1.9911350        2.5529990        1.1747160
 C       -0.7625920        4.3477570       -0.7885190
 H        0.7404610        4.9577030        0.7168090
 H       -0.7175500        4.6307410       -1.8464680
 C        1.6810390        2.8422130        2.5436590
 C        3.2622020        1.9626530        0.8633420
 C        2.6488540        2.6152900        3.5455650
 C        3.9203730        2.0838380        3.2585580
 H        2.3841530        2.8397440        4.5807690
 C        4.1875070        1.7584180        1.9165440
 H        5.1562720        1.3253860        1.6719660
 C       -2.3056160        2.3163040       -1.3797070
 C       -2.4462660        2.3609690       -2.8033740
 C       -3.3630630        1.7725090       -0.5758200
 C       -3.6620500        1.9376360       -3.3871060
 C       -4.7423000        1.4552450       -2.6188010
 H       -3.7549060        1.9740190       -4.4741200
 C       -4.5540870        1.3618900       -1.2246050
 H       -5.3557890        0.9405190       -0.6187970
 C       -1.3380030        2.8109480       -3.7401770
 H       -1.4887760        2.3751420       -4.7366690
 H       -0.3537180        2.4901620       -3.3905280
 H       -1.3260620        3.9053610       -3.8704960
 C       -3.2418530        1.4884690        0.9243380
 C       -4.4598770        1.8775860        1.7999830
 H       -2.3382860        1.9497850        1.3273860
 H       -3.0719630        0.4066790        1.0497410
 H       -5.3532160        1.2839340        1.5594970
 H       -4.7272140        2.9385800        1.6946260
 H       -4.2239270        1.6892370        2.8588540
 C        1.8316770        5.0335910       -1.1784460
 C        3.1516210        5.2318430       -0.3694810
 C        2.0883360        4.1908080       -2.4591420
 C        1.4450940        6.4623150       -1.6723920
 H        2.9730400        5.8325320        0.5363820
 H        3.8821330        5.7771160       -0.9858240
 H        3.6142260        4.2957150       -0.0590640
 H        3.0068660        4.5422170       -2.9525490
 H        1.2727320        4.3065470       -3.1849000
 H        2.2032800        3.1271120       -2.2554010
 H        1.3468420        7.1833520       -0.8519400
 H        0.5242970        6.4757390       -2.2671300
 H        2.2519120        6.8229270       -2.3279030
 C       -6.0515580        1.0423460       -3.2703060
 H       -6.7219260        1.9100530       -3.3935220
 H       -6.5895400        0.2984810       -2.6657690
 H       -5.8890590        0.6139960       -4.2700380
 C       -1.8644980        5.3427100       -0.1554180
 C       -2.2939150        5.0085620        1.2966350
 C       -1.3457540        6.8142450       -0.1154160
 C       -3.1344980        5.3761940       -1.0669470
 H       -1.5036920        5.2440480        2.0174000
 H       -2.5761220        3.9654190        1.4223210
 H       -3.1661190        5.6239980        1.5635860
 H       -2.1179630        7.4351330        0.3626010
 H       -1.1703570        7.2288290       -1.1144950
 H       -0.4309560        6.9269750        0.4782240
 H       -3.7260170        4.4595750       -1.0108750
 H       -2.8720040        5.5493190       -2.1213780
 H       -3.7828230        6.2078280       -0.7518440
 C        0.3355380        3.3598440        3.0138470
 H       -0.4784240        3.0356600        2.3663030
 H        0.3195440        4.4596800        3.0704440
 H        0.1232170        2.9834480        4.0231560
 C        3.7271770        1.5637840       -0.5393100
 C        4.4641420        0.2036990       -0.6426150
 H        4.4052880        2.3447450       -0.9254130
 H        2.8813010        1.5306000       -1.2250290
 H        3.8724830       -0.6096900       -0.1995570
 H        5.4488330        0.2137030       -0.1534540
 H        4.6233220       -0.0397120       -1.7032460
 C        4.9364340        1.8201390        4.3566040
 H        5.9666940        1.8625570        3.9750630
 H        4.7900130        0.8171260        4.7921210
 H        4.8468030        2.5472360        5.1768480
