59
Mol_000271_2D_DFT last geometry from G09 out file
 Ru       -0.3052170        0.0796890        0.9893480
 C       -1.6207380       -0.7083070        0.0108830
 Cl       -1.3269200        0.6315720        3.0753260
 Cl        1.5572230       -1.1992320        0.1805620
 H       -2.0240650       -0.4010260       -0.9575130
 H       -1.9818480       -1.6793650        0.4062250
 C       -0.1939640        1.8806550        0.2436520
 N        0.8698940        2.7305540        0.5567220
 N       -1.0590600        2.6262710       -0.5740390
 C        0.6679680        4.1557280        0.0701470
 C        1.9591770        2.3552400        1.4188210
 C       -0.4622830        3.9733350       -0.9793650
 H        0.2661600        4.6976500        0.9292450
 H       -0.0157500        3.8351720       -1.9724260
 C        1.9618290        2.5108200        2.8468890
 C        3.1448090        1.7908700        0.8629110
 C        3.0362450        2.0682690        3.6455310
 C        4.1628680        1.4802810        3.0491480
 H        2.9690470        2.1893130        4.7235360
 C        4.2247510        1.3500800        1.6525330
 H        5.0928280        0.9050290        1.1704240
 C       -2.1868670        2.1050300       -1.2886620
 C       -2.1191620        1.7646330       -2.6760040
 C       -3.4790720        1.9921450       -0.6989890
 C       -3.2391100        1.3616940       -3.4280150
 C       -4.4872600        1.2439700       -2.7939270
 H       -3.1183760        1.1390540       -4.4859920
 C       -4.6052290        1.5555820       -1.4272970
 H       -5.5659550        1.4755630       -0.9216570
 N       -0.8341550        1.7983320       -3.4341480
 O        0.2107660        1.2903380       -2.8949180
 O       -0.8676100        2.3099620       -4.6171440
 Cl       -3.7532200        2.3882510        1.0310380
 C        1.9730160        4.9148840       -0.3847320
 C        2.0124500        6.3429450        0.2288110
 C        2.2451170        4.9700080       -1.9097850
 H        2.8178520        4.3744270        0.0647940
 H        1.2113000        6.9874280       -0.1619000
 H        2.9699780        6.8297860       -0.0100360
 H        1.9153930        6.3140110        1.3244340
 H        3.2436510        5.3983250       -2.0844240
 H        1.5237960        5.6117650       -2.4374370
 H        2.2332430        3.9763620       -2.3738850
 H       -5.3607220        0.9159010       -3.3566010
 C       -1.3839380        5.2416710       -1.0812760
 C       -2.2252420        5.6103450        0.1649520
 C       -2.2514320        5.2982890       -2.3678290
 H       -0.6364590        6.0442110       -1.2042770
 H       -1.6551410        5.5626810        1.1011820
 H       -3.0958280        4.9572450        0.2790200
 H       -2.5951430        6.6415800        0.0569000
 H       -2.6366590        6.3205130       -2.5016000
 H       -3.1214020        4.6315520       -2.3197170
 H       -1.6731610        5.0455110       -3.2691580
 N        0.8667780        3.1923090        3.6173470
 O        0.7581450        2.9122870        4.8626240
 O        0.1315170        4.0562820        3.0191030
 Cl        3.3447620        1.6184980       -0.9174340
 H        4.9900240        1.1329330        3.6674810
