113
M00000250_2D_DFT last geometry from G09 out file
 Ru       -0.3252320        0.4431770       -0.2934050
 C       -1.9729120       -0.1766320       -0.7279740
 Cl       -0.4145840        0.0769810        2.0980130
 Cl        0.5959470        0.0688610       -2.5306190
 H       -2.8432780        0.3655990       -1.1001680
 H       -2.0702000       -1.2824690       -0.6484370
 C       -0.3657580        2.4010300       -0.4183510
 N        0.7831380        3.1248450       -0.0773900
 N       -1.3179150        3.2641900       -0.9378730
 C        0.7022070        4.5755140       -0.5661750
 C        1.7455920        2.6939710        0.9693870
 C       -0.7813960        4.6932440       -1.1175580
 H        0.8262240        5.2201760        0.3145060
 H       -0.7243980        4.8598760       -2.1999560
 C        1.5006010        3.0842990        2.3301930
 C        2.9372270        1.9343680        0.6920400
 C        2.4263590        2.7698930        3.3416760
 C        3.6358200        2.0762710        3.0821140
 H        2.1699170        3.0451910        4.3604180
 C        3.8446190        1.6686780        1.7398580
 H        4.7439730        1.1175000        1.4895940
 C       -2.6105210        2.8551780       -1.4914580
 C       -2.7807190        2.7569860       -2.9122850
 C       -3.7358310        2.6021810       -0.6365520
 C       -4.0603070        2.5073040       -3.4449080
 C       -5.2101130        2.3344700       -2.6245480
 H       -4.1567810        2.4376400       -4.5223510
 C       -4.9998890        2.3645290       -1.2183030
 H       -5.8365330        2.1952260       -0.5482600
 C       -1.6074130        2.9279300       -3.8822930
 C       -1.6602220        2.0960070       -5.1853170
 H       -0.6825810        2.6634350       -3.3645590
 H       -1.5261180        3.9943550       -4.1629230
 H       -2.4722710        2.4045020       -5.8606950
 H       -1.7740180        1.0257280       -4.9650580
 H       -0.7149650        2.2223520       -5.7355210
 C       -3.6707230        2.5843290        0.8968930
 C       -4.3167480        1.3609310        1.6080300
 H       -2.6311090        2.6439010        1.2287850
 H       -4.1850620        3.4855320        1.2741330
 C       -4.2597160        1.4857140        3.1502420
 H       -5.3698290        1.2446380        1.3048910
 H       -3.7937180        0.4419660        1.3079940
 C       -4.8816990        0.2744060        3.8795510
 H       -4.7820680        2.4083630        3.4634640
 H       -3.2088690        1.5920610        3.4642010
 H       -4.8296820        0.3997090        4.9728290
 H       -4.3469610       -0.6541270        3.6250420
 H       -5.9417850        0.1399920        3.6078690
 C        1.8740410        4.9842780       -1.5924840
 C        3.2254650        5.0625890       -0.8155810
 C        1.9760670        4.0142610       -2.8039310
 C        1.6864230        6.4072510       -2.2047800
 H        3.5478340        4.1061280       -0.4080090
 H        3.1539480        5.7735350        0.0228300
 H        4.0167010        5.4265350       -1.4885250
 H        1.1910300        4.2190270       -3.5442310
 H        1.8987570        2.9656320       -2.5206470
 H        2.9410540        4.1578150       -3.3126710
 H        1.7106460        7.2025530       -1.4500150
 H        0.7652660        6.5027000       -2.7906370
 H        2.5235660        6.5891060       -2.8957040
 N       -6.4826890        2.1279880       -3.1754590
 C       -6.6567330        2.0478540       -4.6319170
 C       -7.6432180        1.9100450       -2.3021470
 H       -6.3229170        2.9720070       -5.1345260
 H       -7.7184450        1.9084420       -4.8665470
 H       -6.1009140        1.2005930       -5.0725650
 H       -7.5381070        0.9973820       -1.6877860
 H       -8.5460290        1.7978670       -2.9137380
 H       -7.8069660        2.7621830       -1.6201220
 C       -1.7187620        5.8922280       -0.5800380
 C       -2.1137260        5.7933460        0.9162720
 C       -1.0179910        7.2782800       -0.7351950
 C       -3.0135900        5.9901540       -1.4507120
 H       -2.9095780        6.5236860        1.1280530
 H       -1.2711770        6.0420540        1.5693710
 H       -2.4870070        4.8092510        1.1909460
 H       -1.6864620        8.0457880       -0.3171180
 H       -0.8336340        7.5456550       -1.7820600
 H       -0.0733730        7.3404760       -0.1831510
 H       -3.7189940        5.1779600       -1.2643290
 H       -2.7785250        5.9954360       -2.5255170
 H       -3.5283660        6.9364810       -1.2241340
 C        0.2189420        3.7659080        2.8071070
 C        0.4311150        5.0967500        3.5751460
 H       -0.3017190        3.0575410        3.4716510
 H       -0.4560260        3.9330750        1.9696780
 H       -0.5371770        5.5177130        3.8877450
 H        0.9481730        5.8480310        2.9581940
 H        1.0314620        4.9533870        4.4842380
 C        3.3653970        1.4140770       -0.6875030
 C        3.8558280       -0.0611340       -0.7458700
 H        2.5493810        1.5117080       -1.4022480
 H        4.1879820        2.0512770       -1.0578260
 C        4.4325870       -0.4353910       -2.1329910
 H        4.6333200       -0.2508480        0.0102870
 H        3.0167180       -0.7321680       -0.5065650
 C        4.8837070       -1.9101970       -2.2228910
 H        5.2923370        0.2225750       -2.3580750
 H        3.6743890       -0.2419600       -2.9070010
 H        4.0358170       -2.5918680       -2.0499040
 H        5.6594610       -2.1419000       -1.4742990
 H        5.2987860       -2.1394470       -3.2175040
 N        4.5637350        1.7964040        4.0951670
 C        4.2801280        2.1786640        5.4845100
 C        5.7459470        0.9725040        3.8097580
 H        5.1441800        1.9362200        6.1145380
 H        3.4012700        1.6490900        5.8967270
 H        4.0982790        3.2627490        5.5751730
 H        6.3420670        0.8590010        4.7229130
 H        6.3931490        1.4381490        3.0468030
 H        5.4742700       -0.0385740        3.4559620
