103
M00000247_2D_DFT last geometry from G09 out file
 Ru        0.0268910        0.2457590       -0.4051250
 C       -1.5430500       -0.5061150       -0.9121850
 Cl       -0.0423210       -0.2657200        1.9555260
 Cl        1.0236420        0.1480530       -2.6339510
 H       -2.4658200       -0.0364940       -1.2550840
 H       -1.5184270       -1.6185480       -0.9175410
 C       -0.2037000        2.1909120       -0.3761140
 N        0.8618630        2.9971170        0.0455930
 N       -1.2243700        2.9996370       -0.8527540
 C        0.6547550        4.4614280       -0.3493340
 C        1.8331230        2.6190810        1.1055900
 C       -0.8261190        4.4812170       -0.9185100
 H        0.7064790        5.0568890        0.5718760
 H       -0.7712770        4.7324840       -1.9843480
 C        1.4985420        2.9425990        2.4628930
 C        3.1018890        2.0041990        0.8390950
 C        2.4420160        2.7398180        3.4909900
 C        3.7239700        2.2110130        3.2449500
 H        2.1448820        2.9919180        4.5098400
 C        4.0080630        1.8430500        1.9189690
 H        4.9866440        1.4152180        1.7020690
 C       -2.4562070        2.5094750       -1.4778270
 C       -2.5644730        2.5053850       -2.9053490
 C       -3.5692530        2.0800380       -0.6807170
 C       -3.7940810        2.1482240       -3.5030830
 C       -4.9304470        1.7945090       -2.7452950
 H       -3.8493230        2.1505170       -4.5921200
 C       -4.7796520        1.7573500       -1.3445430
 H       -5.6372850        1.4643210       -0.7391720
 C       -1.4127700        2.8538660       -3.8330080
 H       -1.3488310        3.9388890       -4.0173000
 H       -1.5597690        2.3752130       -4.8102610
 H       -0.4528060        2.5081180       -3.4442990
 C       -3.5512960        1.9607570        0.8473900
 C       -4.1177900        0.6413030        1.4470630
 H       -4.1506130        2.7878160        1.2667280
 H       -2.5318800        2.0792020        1.2229470
 C       -4.0939970        0.6536320        2.9919910
 H       -3.5237640       -0.2116360        1.0897240
 H       -5.1528060        0.4750960        1.1093360
 H       -3.0657770        0.7501960        3.3699260
 H       -4.6922040        1.4858170        3.3988150
 H       -4.5080680       -0.2839660        3.3946170
 C        1.7985110        5.0364270       -1.3272620
 C        3.1278800        5.1916670       -0.5247610
 C        2.0133400        4.1502490       -2.5863970
 C        1.4819530        6.4688840       -1.8585750
 H        2.9773830        5.8097290        0.3744680
 H        3.8772120        5.6993670       -1.1505590
 H        3.5529920        4.2411560       -0.2063050
 H        2.9603750        4.4260800       -3.0737680
 H        1.2169550        4.3059230       -3.3258840
 H        2.0511640        3.0855180       -2.3589580
 H        1.4245170        7.2164160       -1.0580770
 H        0.5605650        6.5128000       -2.4504420
 H        2.3031260        6.7696780       -2.5263660
 C       -6.2716300        1.4357350       -3.3990390
 C       -6.1712270        0.1509570       -4.2690140
 C       -6.8642610        2.6208910       -4.2114880
 H       -6.9823410        1.2169920       -2.5839400
 H       -7.1615480       -0.1226930       -4.6652150
 H       -5.7933480       -0.6982820       -3.6800670
 H       -5.4953480        0.2930180       -5.1254480
 H       -6.2254940        2.8853090       -5.0674310
 H       -6.9736670        3.5175430       -3.5828200
 H       -7.8583300        2.3570210       -4.6049330
 C       -1.8772290        5.5454950       -0.3121530
 C       -2.2862220        5.3025400        1.1645410
 C       -1.3014310        6.9957390       -0.3541810
 C       -3.1633710        5.5890630       -1.2003340
 H       -1.4790380        5.5693970        1.8558310
 H       -2.5787860        4.2729260        1.3595060
 H       -3.1447470        5.9459140        1.4097700
 H       -2.0409030        7.6690080        0.1043160
 H       -1.1277010        7.3535820       -1.3754580
 H       -0.3732280        7.1007890        0.2191010
 H       -2.9157840        5.6921610       -2.2674020
 H       -3.7653370        6.4663710       -0.9189800
 H       -3.7960590        4.7064850       -1.0841790
 C        0.1449980        3.4716410        2.8965120
 H        0.1626110        4.5641210        3.0342090
 H       -0.1320530        3.0300300        3.8632350
 H       -0.6437200        3.2260410        2.1884270
 C        3.6169300        1.5358130       -0.5257650
 C        4.1599810        0.0764080       -0.5676230
 H        4.4416780        2.2030860       -0.8333980
 H        2.8439970        1.6217100       -1.2889330
 C        4.8557030       -0.2514800       -1.9073040
 H        3.3281700       -0.6257770       -0.4063780
 H        4.8742020       -0.0959260        0.2515810
 H        4.1656960       -0.1309200       -2.7537430
 H        5.7261030        0.4043170       -2.0769170
 H        5.2154410       -1.2925950       -1.9138760
 C        4.7564390        2.0009750        4.3593880
 C        4.2848050        0.9352130        5.3889480
 C        5.1471520        3.3306480        5.0622230
 H        5.6710660        1.6063520        3.8848950
 H        4.0406690       -0.0144600        4.8903900
 H        3.3876910        1.2673540        5.9326140
 H        5.0753480        0.7410500        6.1308550
 H        4.2905170        3.7783940        5.5881560
 H        5.5202190        4.0687030        4.3359080
 H        5.9399340        3.1532140        5.8057900
