79
M00000253_2D_DFT last geometry from G09 out file
 Ru        0.5161890        0.1121830       -0.7502870
 C       -1.0695300       -0.7131360       -0.3599420
 Cl        1.4907540       -0.7544200        1.3460080
 Cl        0.3292770        0.2150060       -3.1888090
 H       -1.8616500       -0.3442750        0.2952060
 H       -1.1887310       -1.7631000       -0.7030870
 C        0.0896990        1.9442540       -0.3136620
 N        1.0967110        2.8612120        0.0598600
 N       -1.0822200        2.6904440       -0.4979550
 C        0.7092040        4.2891940       -0.2431360
 C        2.1581740        2.5982140        1.0205190
 C       -0.8498130        4.2012220       -0.4159370
 H        0.9527760        4.8990420        0.6336790
 H       -1.1273620        4.6033580       -1.3999760
 C        1.9844050        3.0804680        2.3372600
 C        3.3976210        1.9632090        0.7130840
 C        2.9937360        2.9740360        3.3088310
 C        4.2401080        2.3771560        3.0043980
 H        2.8012260        3.3453700        4.3174350
 C        4.4138310        1.8807610        1.6973090
 H        5.3461100        1.3876890        1.4287690
 C       -2.2608490        2.1986210       -1.2058910
 C       -2.2535200        2.3034150       -2.6148910
 C       -3.4453780        1.6974850       -0.5771940
 C       -3.3533840        1.9183910       -3.3985410
 C       -4.5290140        1.4133310       -2.7975300
 H       -3.2818670        1.9921720       -4.4851070
 C       -4.5483810        1.3213550       -1.3907540
 H       -5.4392430        0.9437880       -0.8947950
 H       -1.3504770        2.6490130       -3.1060600
 C       -3.5924800        1.5179400        0.9046460
 O       -4.9427550        1.5855090        1.2931100
 O       -2.6827310        1.3199750        1.7385440
 C       -5.2215580        1.3460490        2.7263960
 H       -4.7212910        2.1014010        3.3477270
 H       -6.3106380        1.4271900        2.8120380
 H       -4.8752120        0.3470370        3.0252030
 C        1.5310030        4.9183910       -1.4662440
 C        3.0329430        5.0490740       -1.0675360
 C        1.4205570        4.0723890       -2.7633510
 C        1.0354370        6.3619770       -1.7849670
 H        3.1564930        5.5691900       -0.1047780
 H        3.5666870        5.6357880       -1.8302060
 H        3.5347340        4.0811300       -0.9947960
 H        0.4097330        4.1102810       -3.1922960
 H        1.6813020        3.0224420       -2.6042040
 H        2.1030890        4.4790530       -3.5251980
 H        1.6257930        6.7607280       -2.6233080
 H        1.1696990        7.0450950       -0.9351500
 H       -0.0179530        6.3941370       -2.0911790
 C       -5.7119700        0.9607860       -3.6353300
 H       -5.9418000        1.6844230       -4.4320400
 H       -6.6163170        0.8286090       -3.0260020
 H       -5.4983430       -0.0031710       -4.1262460
 C       -1.7277930        5.0196530        0.6443200
 C       -1.5908290        4.4846480        2.0974800
 C       -1.2967570        6.5211480        0.6504980
 C       -3.2300260        5.0299360        0.2186610
 H       -1.6435280        3.3937700        2.1465410
 H       -2.4008260        4.8938240        2.7205340
 H       -0.6485870        4.8138010        2.5568360
 H       -1.9038710        7.0549630        1.3966450
 H       -1.4676240        7.0063520       -0.3197980
 H       -0.2460110        6.6664320        0.9290700
 H       -3.7358440        4.0785810        0.3850050
 H       -3.3471150        5.2926980       -0.8440020
 H       -3.7696240        5.7883450        0.8056870
 H        1.0325160        3.5219170        2.6128800
 C        3.6232700        1.2980300       -0.5907430
 O        4.9526030        1.2824980       -0.9834120
 O        2.7313250        0.7653310       -1.2984570
 C        5.2675340        0.5332990       -2.2265460
 H        6.3482520        0.6562550       -2.3524670
 H        4.9977990       -0.5247310       -2.1077070
 H        4.7158000        0.9552880       -3.0765160
 C        5.3254210        2.2277870        4.0558130
 H        6.3232940        2.1519490        3.6017140
 H        5.1664550        1.3142030        4.6530390
 H        5.3330450        3.0769400        4.7546860
