43
Mol_000073_2D_DFT last geometry from G09 out file
Ru       -0.2139460       -0.0110010        1.0297740
C       -1.9797750       -0.4112340        0.8543910
Cl       -0.1341680        0.1213480        3.4256910
Cl        0.7775820       -0.8683950       -0.9683590
H       -2.8189940        0.2766910        0.7169380
H       -2.2355180       -1.4836290        0.9713540
C       -0.2320390        1.8563490        0.6146470
N        0.8745110        2.6995140        0.9145890
N       -1.2209900        2.6918460        0.1005980
C        2.2159670        2.2717140        1.2692800
C        0.5371470        4.0887890        0.8287040
C        3.2290890        2.0620570        0.2879090
C        2.5248480        2.1194760        2.6375000
C        4.5181510        1.6612880        0.7155770
C        4.8094480        1.4864070        2.0807530
H        5.2953370        1.4869020       -0.0267020
C        3.8131630        1.7268410        3.0464160
H        4.0274250        1.6050490        4.1082090
C       -0.8370770        4.1307530        0.1612910
H       -1.5365230        4.7171120        0.7624870
H       -0.7623610        4.5583350       -0.8470460
C       -2.2953950        2.3046630       -0.7814470
C       -1.9505080        1.6341000       -1.9789650
C       -3.6617340        2.6383860       -0.5366070
C       -2.9360020        1.2895540       -2.9224360
C       -4.2831850        1.6332090       -2.6907760
H       -2.6463410        0.7658490       -3.8338030
C       -4.6379430        2.3050650       -1.5065390
H       -5.6800350        2.5583850       -1.3227550
H       -0.9092290        1.3782970       -2.1576620
C       -4.1356420        3.3386020        0.7175440
F       -3.9377760        4.7572290        0.6630800
F       -3.4886470        2.9063620        1.8955220
F       -5.5168620        3.1656350        0.9442710
F        0.5087420        4.7119160        2.1361560
F        1.5181830        4.8561030        0.1293250
H       -5.0528570        1.3820160       -3.4205620
C        3.0969450        2.3154040       -1.2028480
F        1.7870470        2.4508620       -1.7005640
F        3.7025610        1.2883120       -1.9666210
F        3.7767390        3.5112360       -1.5809790
H        1.7431240        2.2938940        3.3703850
H        5.8090360        1.1726070        2.3822810
