65
Mol_000326_2D_DFT last geometry from G09 out file
 Ru        0.4267650        0.1203680        0.0512460
 C       -0.5669000       -0.6415940       -1.2674950
 Cl       -0.9054120       -0.0600740        2.0417220
 Cl        2.4989260       -0.0685560       -1.2379500
 H       -1.0084920       -0.1827320       -2.1573760
 H       -0.6321590       -1.7485790       -1.2067260
 C        0.1077060        2.0143390       -0.1574740
 N        0.9524390        2.9810500        0.4197420
 N       -0.8811010        2.7134140       -0.8375360
 C        0.7391010        4.3325360       -0.2075480
 C        1.7466030        2.7958100        1.6031750
 C       -0.7279350        4.2234000       -0.7308100
 H        0.8059730        5.0948980        0.5691060
 H       -0.7890270        4.6367330       -1.7441510
 C        1.7267480        3.7792060        2.6321950
 C        2.5440780        1.6396490        1.7973120
 C        2.4556300        3.6037890        3.8155790
 C        3.2189940        2.4306030        3.9918610
 H        2.4254900        4.3511770        4.6052550
 C        3.2666230        1.4473070        2.9848780
 H        3.8781830        0.5580680        3.1212390
 C       -1.9823770        2.1379930       -1.5648090
 C       -2.1341910        2.4139060       -2.9460070
 C       -2.9463770        1.3360900       -0.9007750
 C       -3.2350870        1.9096900       -3.6588490
 C       -4.1860890        1.1213470       -2.9781850
 H       -3.3576110        2.1088990       -4.7210710
 C       -4.0483840        0.8247300       -1.6051350
 H       -4.7956470        0.2130260       -1.1047410
 H       -1.3860670        3.0048510       -3.4704950
 H       -2.8263890        1.1093660        0.1553620
 C        1.8449120        4.7115980       -1.2921590
 C        1.8496570        3.7645060       -2.5236800
 C        1.5817260        6.1732260       -1.7678790
 C        3.2568190        4.6738160       -0.6347120
 H        0.9186870        3.8289750       -3.1044860
 H        2.0136380        2.7189060       -2.2407270
 H        2.6673240        4.0529830       -3.2005190
 H        2.3637690        6.4693920       -2.4816060
 H        1.6093040        6.8888090       -0.9324680
 H        0.6168670        6.2861000       -2.2820100
 H        3.5571190        3.6543900       -0.3661150
 H        3.3106660        5.3006450        0.2679690
 H        4.0022900        5.0568670       -1.3466100
 N       -5.3589010        0.5911110       -3.7260820
 O       -5.4659950        0.8931820       -4.9730280
 O       -6.2029240       -0.1390090       -3.0859220
 C       -1.8540920        4.9632540        0.1295400
 C       -2.0834500        4.3048720        1.5179240
 C       -1.4396380        6.4560490        0.3307830
 C       -3.2055280        4.9940730       -0.6513780
 H       -1.1870450        4.3273020        2.1494450
 H       -2.4002210        3.2588310        1.4331990
 H       -2.8747610        4.8468330        2.0562250
 H       -2.2687700        6.9956620        0.8098920
 H       -1.2303980        6.9572940       -0.6248200
 H       -0.5633860        6.5808470        0.9809670
 H       -3.6656140        4.0069020       -0.7489980
 H       -3.0828940        5.4180990       -1.6601010
 H       -3.9219550        5.6319980       -0.1134580
 H        1.1242720        4.6774560        2.5350070
 H        2.6783730        0.9195510        0.9925490
 N        3.9863910        2.2406840        5.2453270
 O        3.9449200        3.1795090        6.1281170
 O        4.6559210        1.1500780        5.3878780
