61
Mol_000322_2D_DFT last geometry from G09 out file
 Ru        0.2167500       -0.0166160        0.1657400
 C       -1.3395100       -0.8007630       -0.3483340
 Cl       -0.0291960       -0.2740660        2.5454830
 Cl        1.4807680       -0.4396630       -1.8436360
 H       -2.2654050       -0.3404350       -0.6965940
 H       -1.3222740       -1.9101290       -0.2972970
 C       -0.0843030        1.8794690       -0.0532430
 N        0.8999150        2.8086210        0.3396380
 N       -1.1430600        2.6056750       -0.6134130
 C        0.5461980        4.1999880       -0.0240720
 C        1.9958650        2.5513180        1.2875080
 C       -0.8811230        4.0693350       -0.6331680
 H        0.5579400        4.8429210        0.8644740
 H       -0.9191860        4.4441610       -1.6636800
 C        1.7616770        2.7774760        2.6832340
 C        3.2818130        2.1482270        0.8231200
 C        2.8180620        2.5462510        3.5869220
 C        4.0922220        2.1000620        3.1666340
 H        2.6332870        2.7012170        4.6513150
 C        4.2958970        1.9149240        1.7866000
 H        5.2747590        1.5896480        1.4297760
 C       -2.2878730        2.0948520       -1.3684740
 C       -2.1832500        1.9723010       -2.7888920
 C       -3.5018350        1.7770590       -0.6924830
 C       -3.3230480        1.5489820       -3.5082190
 C       -4.5513210        1.2495980       -2.8752470
 H       -3.2440010        1.4459710       -4.5918800
 C       -4.6093220        1.3591250       -1.4702240
 H       -5.5382610        1.1116220       -0.9535690
 C       -0.9039180        2.2638070       -3.5565900
 H       -0.0150640        1.8739540       -3.0511370
 H       -0.7566030        3.3440940       -3.7193570
 H       -0.9448790        1.7997000       -4.5503040
 C       -3.6716880        1.8316300        0.8182150
 H       -2.7223620        1.7872480        1.3573350
 H       -4.2879500        0.9880820        1.1602960
 H       -4.1901700        2.7528130        1.1229560
 C        1.5231920        4.8936850       -1.0180170
 F        2.7833160        5.1299380       -0.4474300
 F        1.7220540        4.1797410       -2.2162400
 F        1.0132030        6.1615830       -1.3944540
 C       -5.7626720        0.8239810       -3.6873320
 H       -6.5521340        0.4017600       -3.0510480
 H       -5.4960430        0.0696070       -4.4429320
 H       -6.1961220        1.6825030       -4.2268190
 C       -1.9138770        4.9482110        0.1317220
 F       -3.1713680        4.9623900       -0.4953030
 F       -2.1154070        4.5671460        1.4729020
 F       -1.4736020        6.2934950        0.1652720
 C        0.4359000        3.2642150        3.2440580
 H       -0.4233110        2.7827350        2.7698950
 H        0.3202530        4.3554970        3.1368510
 H        0.3775710        3.0441880        4.3171040
 C        3.6740340        1.9965820       -0.6364780
 H        2.8302020        2.0346950       -1.3235380
 H        4.1785850        1.0349500       -0.7999260
 H        4.3825530        2.7925570       -0.9141120
 C        5.1907650        1.8205720        4.1774670
 H        6.1619910        1.6613290        3.6899710
 H        4.9612600        0.9165760        4.7654360
 H        5.3015070        2.6507080        4.8921200
