63
Mol_000067_2D_DFT last geometry from G09 out file
 Ru       -0.1871610        0.4226770        0.8308780
 C       -1.1652120       -0.4877040       -0.4367520
 Cl       -1.9927270        0.3673600        2.5210990
 Cl        1.9285550       -0.1509030       -0.3061140
 H       -1.6389740       -0.1420240       -1.3628490
 H       -1.2744870       -1.5814040       -0.2655910
 C       -0.3258540        2.2323560        0.2127980
 N        0.6559620        3.2103150        0.4955670
 N       -1.3436620        2.8931010       -0.4746810
 C        0.3049920        4.5083960       -0.1383020
 C        1.9829660        3.0208650        1.0017110
 C       -1.2191780        4.4029140       -0.3380310
 H        0.8101510        4.6166640       -1.1119730
 H        0.5982360        5.3405690        0.5117110
 C       -2.0300540        4.9595890        0.8802230
 C       -1.7451180        5.2739980       -1.5048610
 C       -2.1609300        6.4885210        0.6232020
 H       -1.5506320        4.7221050        1.8392290
 H       -3.0210520        4.4877190        0.8855460
 C       -1.8426600        6.6974520       -0.8968640
 H       -3.1730570        6.8380480        0.8734480
 H       -1.4646730        7.0645810        1.2506870
 H       -0.8906860        7.2369620       -1.0198780
 H       -2.6132360        7.2964620       -1.4033460
 H       -2.7453980        4.9238420       -1.7919960
 H       -1.1091440        5.2229800       -2.3960530
 C        3.0319220        3.8028200        0.4536770
 C        2.2943910        2.0991940        2.0468330
 C        4.3611770        3.6666530        0.8924520
 C        4.6705230        2.7328040        1.8974890
 H        5.1440360        4.2739290        0.4359700
 C        3.6348500        1.9673660        2.4671470
 H        3.8841850        1.2549470        3.2498600
 C       -2.5280180        2.3160950       -1.0738670
 C       -2.6556230        2.1880600       -2.5066020
 C       -3.6068760        1.9648610       -0.2328410
 C       -3.9202320        1.7494940       -3.0031970
 C       -4.9913770        1.4275670       -2.1499880
 H       -4.0561660        1.6290430       -4.0760460
 C       -4.8361770        1.5164840       -0.7525270
 H       -5.6470730        1.2436220       -0.0770600
 H        2.8237820        4.5034280       -0.3513050
 N        1.2081730        1.3452530        2.6819370
 C        1.6291240        0.0825890        3.3739970
 C        0.4913350        2.2380750        3.6660920
 H        0.7193530       -0.4548440        3.6680170
 H        2.2218780        0.2753480        4.2864240
 H        2.2103440       -0.5377570        2.6833220
 H       -0.3617930        1.6969590        4.0827630
 H        0.1202010        3.1312120        3.1552920
 H        1.1800240        2.5460410        4.4729860
 H        5.6975670        2.6011190        2.2401090
 N       -1.6153190        2.5278640       -3.4145500
 C       -0.2756600        1.9065770       -3.3135500
 C       -1.9707900        2.8804670       -4.7988780
 H       -0.0333920        1.6245950       -2.2916190
 H        0.4942220        2.6098500       -3.6690350
 H       -0.2102310        0.9928130       -3.9373580
 H       -1.1311120        3.4338120       -5.2462710
 H       -2.8543950        3.5316340       -4.8190120
 H       -2.1671240        2.0011150       -5.4465460
 H       -3.4609260        2.0244100        0.8423420
 H       -5.9345720        1.0852600       -2.5805670
