105
Mol_000068_2D_DFT last geometry from G09 out file
 Ru        0.3955080       -0.4133540        0.0336180
 C       -1.0376250       -1.2439130       -0.7110010
 Cl       -0.1088550       -0.6932480        2.3775770
 Cl        1.9760490       -0.8022590       -1.7540030
 H       -1.9009280       -0.7933760       -1.2056030
 H       -1.0072540       -2.3542940       -0.6758840
 C       -0.0404700        1.4933030       -0.0784120
 N        0.8962480        2.4448280        0.3258640
 N       -1.2111880        2.1744300       -0.4240640
 C        0.3948160        3.8297730        0.1419630
 C        2.3035890        2.2415750        0.6569660
 C       -1.1290660        3.6639920       -0.0777440
 H        0.8847540        4.2944190       -0.7263480
 H        0.6230120        4.4365110        1.0229440
 C       -1.9535650        4.0748680        1.1826230
 C       -1.6868220        4.6517770       -1.1394130
 C       -2.0085570        5.6247960        1.1295920
 H       -1.5186560        3.6902680        2.1140970
 H       -2.9659190        3.6693660        1.0877010
 C       -1.8379950        6.0002630       -0.3826410
 H       -2.9566570        5.9993350        1.5424240
 H       -1.2048180        6.0733400        1.7323210
 H       -0.9469820        6.6304070       -0.5246600
 H       -2.6955120        6.5732410       -0.7643630
 H       -2.6702950        4.2992060       -1.4759030
 H       -1.0392400        4.7364180       -2.0197820
 C        3.2777280        2.2452730       -0.3920060
 C        2.7387480        2.1741170        2.0230970
 C        4.6313570        2.0188770       -0.0776780
 C        5.0804080        1.8317970        1.2590720
 H        5.3389430        1.9813820       -0.9020890
 C        4.1058770        1.9641810        2.2895490
 H        4.4159180        1.9006270        3.3270030
 C       -2.4250440        1.6183050       -1.0080530
 C       -2.5836970        1.5881750       -2.4362760
 C       -3.4848200        1.1223020       -0.1763250
 C       -3.7958970        1.1243920       -2.9860180
 C       -4.8825030        0.6759360       -2.1839840
 H       -3.8859740        1.1043820       -4.0673660
 C       -4.6777560        0.6678990       -0.7761600
 H       -5.4505920        0.2734510       -0.1242810
 C        2.9448910        2.5310940       -1.8565680
 C        3.4617450        3.9147420       -2.3500430
 H        3.3949160        1.7470560       -2.4816800
 H        1.8663930        2.4641970       -2.0314070
 C        3.1192830        4.1933770       -3.8339970
 H        3.0434800        4.7200670       -1.7216670
 H        4.5550210        3.9658170       -2.2184920
 C        3.6515720        5.5524860       -4.3407870
 H        2.0237610        4.1565320       -3.9719530
 H        3.5331280        3.3831090       -4.4595820
 H        3.3907550        5.7134900       -5.3989840
 H        4.7487280        5.6073430       -4.2548690
 H        3.2301410        6.3896170       -3.7608760
 C        1.7959310        2.4287870        3.2162540
 C        1.9358150        3.9017190        3.7131460
 C        2.0047030        1.4628350        4.4133680
 H        0.7661930        2.2824900        2.8672290
 H        1.7860360        4.6328590        2.9060710
 H        2.9376010        4.0789060        4.1324620
 H        1.1971610        4.1093670        4.5038280
 H        1.1995330        1.6080960        5.1504690
 H        2.9576950        1.6457440        4.9331680
 H        1.9746350        0.4169580        4.0888770
 N        6.4231480        1.5551290        1.5514130
 C        6.8574540        1.3641680        2.9412380
 C        7.4040610        1.4174370        0.4669730
 H        6.7235660        2.2778200        3.5480650
 H        7.9229130        1.1066940        2.9599110
 H        6.3058010        0.5446200        3.4338920
 H        7.1219920        0.6183430       -0.2404110
 H        8.3827030        1.1597590        0.8884730
 H        7.5230720        2.3542940       -0.1064030
 C       -1.4660930        1.9808450       -3.4258370
 C       -1.9096360        3.0551780       -4.4606270
 C       -0.9015490        0.7376890       -4.1744890
 H       -0.6366450        2.4034360       -2.8466240
 H       -1.0380940        3.3942050       -5.0429600
 H       -2.3622650        3.9333580       -3.9814690
 H       -2.6409430        2.6535490       -5.1776140
 H       -1.6768750        0.2551530       -4.7885120
 H       -0.4970090       -0.0047640       -3.4785420
 H       -0.0833080        1.0429040       -4.8454510
 C       -3.3437130        0.9318220        1.3374810
 C       -4.5240540        1.4343120        2.2134850
 H       -3.2183690       -0.1471210        1.5259450
 H       -2.4155350        1.3843960        1.6921750
 C       -4.2566510        1.2436330        3.7268880
 H       -4.7231960        2.5000870        2.0095640
 H       -5.4505510        0.8963550        1.9539320
 C       -5.4317880        1.7018590        4.6186850
 H       -3.3451980        1.7976710        4.0105760
 H       -4.0385090        0.1801810        3.9256270
 H       -5.2010790        1.5542520        5.6856380
 H       -6.3496770        1.1342890        4.3945320
 H       -5.6555450        2.7707870        4.4696570
 N       -6.0890110        0.2452450       -2.7542680
 C       -6.2379100        0.1756690       -4.2139660
 C       -7.1827530       -0.2373620       -1.9007050
 H       -6.1058860        1.1642340       -4.6868730
 H       -7.2454120       -0.1776760       -4.4624760
 H       -5.5147630       -0.5216330       -4.6741960
 H       -6.9140450       -1.1590830       -1.3525580
 H       -8.0593360       -0.4603870       -2.5201540
 H       -7.4839980        0.5229970       -1.1605350
