79
Mol_000197_2D_DFT last geometry from G09 out file
 Ru       -0.0721320       -0.2278330        0.7663840
 C       -1.4967680       -0.9997110       -0.0634300
 Cl       -0.9123940       -0.0116380        3.0051200
 Cl        1.6540140       -1.0577540       -0.6642080
 H       -2.1968460       -0.5517960       -0.7710650
 H       -1.6311410       -2.0776090        0.1627800
 C       -0.2147120        1.6023490        0.2736590
 N        0.8137840        2.5273680        0.6135710
 N       -1.2685430        2.3669320       -0.2860320
 C        2.1068000        2.1961660        1.2206170
 C        0.3323630        3.8746540        0.5690700
 C        3.3193950        2.2456400        0.4763570
 C        2.1154850        1.8655970        2.5958520
 C        4.5061280        1.9038170        1.1761800
 C        4.5463120        1.5330990        2.5393360
 H        5.4341960        1.9312770        0.6137820
 C        3.3129920        1.5306830        3.2421420
 H        3.2722870        1.2705810        4.2987040
 C       -0.9351460        3.7642270       -0.3373810
 C       -2.4365210        1.8994490       -1.0285200
 C       -3.7331170        1.8396630       -0.4519190
 C       -2.2335670        1.5674450       -2.3898040
 C       -4.7917040        1.4265840       -1.3067660
 C       -4.6246100        1.0846000       -2.6673420
 H       -5.7854690        1.3783460       -0.8723590
 C       -3.3061900        1.1626590       -3.1946820
 H       -3.1076660        0.9147770       -4.2361980
 C       -5.8027210        0.6445280       -3.5797160
 C       -5.5228980       -0.7916570       -4.1302670
 C       -7.1659380        0.6148600       -2.8330910
 C       -5.9285750        1.6448230       -4.7746810
 H       -5.4377870       -1.5189060       -3.3087150
 H       -4.5950060       -0.8364090       -4.7168350
 H       -6.3466380       -1.1133630       -4.7852910
 H       -7.4470530        1.6065120       -2.4487460
 H       -7.1609630       -0.0952140       -1.9927610
 H       -7.9571990        0.2960810       -3.5269380
 H       -6.1281690        2.6650340       -4.4144550
 H       -6.7587580        1.3462810       -5.4325940
 H       -5.0153270        1.6770680       -5.3845320
 F        1.2665830        4.8118970        0.0914510
 F       -0.0312150        4.3702150        1.8734260
 F       -0.6268740        4.2057010       -1.6723560
 F       -1.9844910        4.6111080        0.0757250
 C        3.4182640        2.6792540       -0.9971930
 C        4.0787860        1.6051430       -1.9067510
 C        4.1756660        4.0341370       -1.1352540
 H        2.3992010        2.8355470       -1.3769600
 H        3.5505850        0.6473170       -1.8447580
 H        5.1325400        1.4347590       -1.6405590
 H        4.0557750        1.9462610       -2.9535690
 H        5.2323450        3.9323490       -0.8460350
 H        3.7263070        4.8183870       -0.5133400
 H        4.1474220        4.3718830       -2.1826790
 H        1.1834770        1.8718480        3.1546230
 C        5.8601770        1.1416510        3.2700630
 C        5.7338020       -0.3258050        3.7947390
 C        7.1096360        1.2160110        2.3480890
 C        6.0923460        2.1086660        4.4760070
 H        4.8990910       -0.4402700        4.4998260
 H        6.6562260       -0.6233840        4.3164780
 H        5.5689770       -1.0272030        2.9632260
 H        7.2787470        2.2331560        1.9641880
 H        7.0307880        0.5296130        1.4921090
 H        8.0044020        0.9276490        2.9187780
 H        7.0187080        1.8384580        5.0054790
 H        5.2696880        2.0675790        5.2029210
 H        6.1861440        3.1500290        4.1331070
 C       -4.0368230        2.1884240        1.0141160
 C       -4.6407550        0.9828740        1.7898520
 C       -4.9649990        3.4324480        1.1288730
 H       -3.0901730        2.4416780        1.5088220
 H       -3.9744300        0.1112080        1.7613070
 H       -5.6213350        0.6860550        1.3887130
 H       -4.7810030        1.2565200        2.8461470
 H       -5.0912010        3.7048600        2.1877330
 H       -5.9647970        3.2338860        0.7144130
 H       -4.5433150        4.2994920        0.6039530
 H       -1.2297730        1.6274920       -2.8091360
