91
Mol_000195_2D_DFT last geometry from G09 out file
 Ru        0.0040370       -0.0571120        0.4249440
 C       -1.4911480       -0.9128970       -0.1482800
 Cl       -0.4457090        0.1547160        2.8001830
 Cl        1.3877320       -0.7989660       -1.4211430
 H       -2.3128450       -0.5314190       -0.7579500
 H       -1.5228010       -1.9958460        0.1010890
 C       -0.2904060        1.8314160        0.0114690
 N        0.7601780        2.7400360        0.0988310
 N       -1.4541770        2.5387220       -0.2534810
 C        2.0325200        2.4048720        0.7444330
 C        0.3250430        4.1698430       -0.3148970
 C        3.2320920        2.0546270        0.0471990
 C        2.0476490        2.4499050        2.1638240
 C        4.3742880        1.7484180        0.8334190
 C        4.3965790        1.7840450        2.2440210
 H        5.2848480        1.4520780        0.3089990
 C        3.2002600        2.1511720        2.9045010
 H        3.1594170        2.1834610        3.9944940
 C       -1.2528500        4.0594240       -0.0036380
 C       -2.6423910        1.9745360       -0.8749710
 C       -3.7864310        1.5102400       -0.1552380
 C       -2.6353430        1.8878550       -2.2912500
 C       -4.8836250        1.0243620       -0.9151820
 C       -4.8980670        0.9602940       -2.3260290
 H       -5.7576280        0.6594680       -0.3720500
 C       -3.7366330        1.3957360       -3.0099430
 H       -3.6895260        1.3449040       -4.0993130
 C       -6.0928410        0.3889600       -3.0787820
 C       -5.9928550       -1.1466310       -3.3217620
 H       -6.1927640        0.8908480       -4.0552290
 H       -7.0208390        0.5952570       -2.5208810
 C       -7.2063690       -1.7138620       -4.0898030
 H       -5.8976270       -1.6601680       -2.3504530
 H       -5.0673150       -1.3650680       -3.8798960
 H       -7.3079800       -1.2451420       -5.0818160
 H       -7.1024970       -2.7994700       -4.2421440
 H       -8.1456370       -1.5414460       -3.5400570
 C        0.6937090        4.3038010       -1.8421480
 C        0.5512710        5.6551360       -2.5956800
 H        1.7489720        4.0279280       -1.8980920
 H        0.1568090        3.5237150       -2.4000790
 H        0.9038970        6.5128130       -2.0089380
 H       -0.4733570        5.8723820       -2.9159460
 H        1.1692490        5.6120510       -3.5070540
 C        1.0121190        5.2842250        0.5354850
 C        2.4931240        5.6590810        0.2816970
 H        0.4143130        6.1950080        0.3893920
 H        0.9186260        5.0223860        1.5943010
 H        2.6869650        5.9840840       -0.7475380
 H        3.1810550        4.8423240        0.5169690
 H        2.7514200        6.5035260        0.9410770
 C       -2.1050960        4.9618320       -0.9492040
 C       -3.6279840        5.1219470       -0.7144120
 H       -1.6599900        5.9653580       -0.8947610
 H       -1.9666930        4.6220140       -1.9806590
 H       -4.1802000        4.1906970       -0.8683800
 H       -4.0129230        5.8541270       -1.4427360
 H       -3.8734880        5.5022800        0.2842580
 C       -1.6506130        4.2822300        1.5078520
 C       -1.7337520        5.7063680        2.1232940
 H       -2.6485140        3.8450150        1.5978590
 H       -1.0017320        3.6579220        2.1363590
 H       -2.2119540        6.4372000        1.4587890
 H       -0.7595950        6.1129000        2.4154360
 H       -2.3450670        5.6536650        3.0386070
 C        3.3871680        1.9399320       -1.4682330
 C        4.3999140        2.9321020       -2.1013340
 H        2.4166680        2.0264940       -1.9619660
 H        3.7273940        0.9183800       -1.6903500
 H        4.4646300        2.7539930       -3.1864000
 H        5.4099650        2.8036220       -1.6854160
 H        4.1130050        3.9818540       -1.9476610
 H        1.1275700        2.6901480        2.6888880
 C        5.6413080        1.3846730        3.0247060
 C        5.6734360       -0.1303540        3.3870310
 H        5.7007570        1.9684140        3.9582240
 H        6.5455180        1.6249410        2.4416350
 C        6.9343730       -0.5318700        4.1825310
 H        5.6155660       -0.7236400        2.4594780
 H        4.7719900       -0.3809560        3.9700830
 H        7.0013750        0.0199000        5.1341390
 H        6.9225820       -1.6071800        4.4197750
 H        7.8532450       -0.3255910        3.6101250
 C       -3.8699710        1.4048010        1.3669000
 C       -5.0205720        2.2087290        2.0277250
 H       -2.9149210        1.6762830        1.8216500
 H       -4.0163240        0.3413970        1.6204090
 H       -4.9350560        3.2880440        1.8367720
 H       -5.0014690        2.0555010        3.1178520
 H       -6.0083720        1.8874180        1.6658000
 H       -1.7403910        2.1970860       -2.8291210
