87
Mol_000198_2D_DFT last geometry from G09 out file
 Ru        0.4889330       -0.1947510       -0.1482670
 C       -1.0988240       -0.9494730       -0.6057740
 Cl        0.3527340       -0.4909240        2.2497490
 Cl        1.7612770       -0.5478950       -2.1561750
 H       -2.0445440       -0.4551980       -0.8460970
 H       -1.1058140       -2.0597020       -0.6240030
 C        0.1630660        1.7129190       -0.3817990
 N        1.1178660        2.6680860        0.0008600
 N       -0.9035110        2.4061400       -0.9537620
 C        2.2260610        2.4448550        0.9211370
 C        0.7300860        4.0461790       -0.4480790
 C        3.5306250        2.0292510        0.4617770
 C        2.0229290        2.5914610        2.3422960
 C        4.5015440        1.6359690        1.4398850
 C        4.2847330        1.6953210        2.8215310
 H        5.4662490        1.3096050        1.0692290
 C        3.0377470        2.2127850        3.2466520
 H        2.8447470        2.3107300        4.3094620
 C       -0.7625010        3.8911360       -0.7596130
 C       -2.1530670        1.9465240       -1.5228320
 C       -3.3713820        2.1213660       -0.7742830
 C       -2.2419190        1.4359610       -2.8556240
 C       -4.6116380        1.7814570       -1.3822070
 C       -4.7123780        1.2395750       -2.6781260
 H       -5.5100510        1.9206720       -0.7903630
 C       -3.5027050        1.0642960       -3.3852540
 H       -3.5025150        0.6472930       -4.3887190
 C       -6.0637530        0.8293570       -3.3257760
 C       -6.0306070       -0.6961750       -3.6641400
 C       -7.2804660        1.0898970       -2.3937310
 C       -6.2779570        1.6481000       -4.6398870
 H       -6.9770840       -1.0015240       -4.1359860
 H       -5.8937320       -1.2980050       -2.7530720
 H       -5.2154460       -0.9465790       -4.3562220
 H       -7.2145730        0.5130250       -1.4591280
 H       -8.2054640        0.7832110       -2.9033660
 H       -7.3839620        2.1553080       -2.1384390
 H       -7.2301250        1.3637520       -5.1133940
 H       -5.4764180        1.4702830       -5.3695470
 H       -6.3102220        2.7280980       -4.4304580
 H        1.3000310        4.3275780       -1.3428640
 H        0.9088120        4.7648750        0.3539460
 H       -1.0585980        4.4153850       -1.6765280
 H       -1.4020440        4.2106980        0.0696560
 N        3.9264110        1.9761080       -0.8855540
 C        3.6561800        3.0559560       -1.8417550
 C        4.9214260        0.9926000       -1.3438090
 H        4.5750090        3.2696760       -2.4133060
 H        3.3868270        3.9790170       -1.3172910
 H        2.8664580        2.7993350       -2.5639050
 H        4.7168250        0.7460530       -2.3940950
 H        4.8325700        0.0590530       -0.7773000
 H        5.9628240        1.3655830       -1.2712670
 C        0.7643940        3.1573030        2.9650290
 C        0.3670270        2.7144090        4.3766420
 O        0.0449580        4.0113390        2.3734970
 H        0.9978820        3.2045520        5.1354330
 H       -0.6681400        3.0273420        4.5558250
 H        0.4549530        1.6287430        4.5002860
 C        5.3439230        1.2487510        3.8665500
 C        4.7419030        0.0988740        4.7384560
 C        6.6490100        0.7175880        3.2096450
 C        5.7230200        2.4562900        4.7829250
 H        3.8448280        0.4214830        5.2845160
 H        5.4807670       -0.2424290        5.4796160
 H        4.4585460       -0.7607500        4.1135000
 H        6.4594230       -0.1562760        2.5689950
 H        7.3531410        0.4034150        3.9937700
 H        7.1519130        1.4889460        2.6071540
 H        4.8535110        2.8540630        5.3242690
 H        6.1562820        3.2778950        4.1927150
 H        6.4667050        2.1450750        5.5323680
 N       -3.3657760        2.6700970        0.5470880
 C       -4.5160960        3.4921210        0.9639890
 C       -2.8234190        1.8451380        1.6504250
 H       -4.8314930        4.1530510        0.1459460
 H       -4.2034570        4.1224200        1.8105400
 H       -5.3958710        2.9030190        1.2992490
 H       -3.5779600        1.1221140        2.0249920
 H       -2.5238880        2.4957590        2.4823870
 H       -1.9483710        1.2808730        1.3311380
 C       -1.1109930        1.2903860       -3.8694130
 C       -0.0180010        2.3456680       -3.9853860
 O       -1.1520590        0.3410200       -4.6965420
 H        0.3900310        2.3065570       -5.0031960
 H       -0.3901820        3.3555550       -3.7709350
 H        0.7929160        2.1091040       -3.2883510
