63
Mol_000196_2D_DFT last geometry from G09 out file
 Ru       -0.0237010       -0.2648870        1.0165240
 C       -0.6238490       -1.1218000       -0.4879590
 Cl       -1.8383640       -0.6635670        2.5090790
 Cl        2.2841510       -0.9222020        0.8594270
 H       -0.7815750       -0.6633620       -1.4685070
 H       -0.7618000       -2.2164280       -0.4192140
 C       -0.2048010        1.5337910        0.4535680
 N        0.7528130        2.5733240        0.7084680
 N       -1.3912730        2.2363250        0.0053130
 C        2.1498800        2.3922050        1.1201310
 C        0.1902820        3.9049460        0.5437600
 C        3.2517390        2.4314530        0.2079600
 C        2.4323080        2.2682410        2.5150800
 C        4.5609460        2.4073520        0.7586450
 C        4.7865320        2.3552870        2.1358900
 H        5.4209560        2.4333430        0.0970180
 C        3.7250430        2.2758120        3.0467660
 H        3.8980240        2.2025790        4.1165920
 C       -1.3570250        3.5973670        0.5142320
 C       -2.4528060        1.7473680       -0.8769520
 C       -3.7804790        1.4073350       -0.4507100
 C       -2.1891780        1.7382820       -2.2895930
 C       -4.7314680        1.0574460       -1.4475020
 C       -4.4223670        1.0609290       -2.8083060
 H       -5.7386580        0.7841410       -1.1509940
 C       -3.1460150        1.4176170       -3.2593290
 H       -2.9088680        1.4491230       -4.3189330
 N       -5.4713450        0.6939480       -3.8101900
 O       -6.6464110        0.4204410       -3.3725690
 O       -5.1298690        0.6747840       -5.0478230
 Cl        0.6893330        4.7489050       -1.0981770
 Cl        0.7378370        5.1150840        1.8374910
 Cl       -2.3787350        4.7926690       -0.4385010
 Cl       -2.0156610        3.6926730        2.3250970
 C        3.1632720        2.4618280       -1.3248120
 C        3.7121680        1.1440010       -1.9502520
 C        3.9130370        3.6844340       -1.9304970
 H        2.1148590        2.5317030       -1.6156140
 H        3.1706950        0.2644550       -1.5869260
 H        4.7817700        0.9995440       -1.7377040
 H        3.5927110        1.1976490       -3.0422240
 H        5.0040180        3.5889600       -1.8285900
 H        3.6077960        4.6315440       -1.4682600
 H        3.6900790        3.7456710       -3.0056500
 N        1.3633810        2.0345650        3.5169300
 O        1.3949320        2.6936460        4.6093870
 O        0.4963300        1.1117710        3.2590110
 N        6.1892860        2.3620850        2.6560990
 O        6.3533720        2.2882300        3.9271420
 O        7.1438010        2.4453710        1.8015530
 C       -4.3094790        1.4154750        0.9904730
 C       -5.0337970        0.0859570        1.3539980
 C       -5.2817610        2.6133190        1.2179270
 H       -3.4657500        1.5220110        1.6748750
 H       -6.0072130       -0.0125340        0.8514340
 H       -5.2224250        0.0736640        2.4364650
 H       -4.4219760       -0.7928250        1.1192000
 H       -6.1822800        2.5247700        0.5917170
 H       -4.8121560        3.5807830        1.0086970
 H       -5.6051700        2.6169460        2.2687840
 N       -0.8610540        2.0758960       -2.8755570
 O        0.1671880        1.4506520       -2.4244690
 O       -0.8330320        2.9201040       -3.8369160
