89
Mol_000300_2D_DFT last geometry from G09 out file
 Ru        0.4847360       -0.0006270       -0.4471400
 C       -0.9913320       -0.8671800       -1.0442010
 Cl        0.3564900       -0.6820580        1.8758630
 Cl        1.5147770        0.1026590       -2.6723870
 H       -1.9458570       -0.4689970       -1.3919660
 H       -0.8595820       -1.9706250       -1.1067750
 C        0.0492300        1.9085620       -0.2903370
 N        1.0077570        2.7892680        0.2224010
 N       -1.0575280        2.6338220       -0.7025140
 C        0.6133920        4.2493200        0.0117340
 C        2.0595670        2.3852980        1.1806490
 C       -0.8591580        4.1477650       -0.5623080
 H        0.5944030        4.7259370        1.0000350
 H       -0.8539140        4.5530680       -1.5813100
 C        1.7865640        2.4801150        2.5857350
 C        3.3537290        1.9193900        0.7791300
 C        2.7762540        2.1582130        3.5308100
 C        4.0718670        1.7062680        3.1555400
 H        2.5057830        2.2263970        4.5813030
 C        4.3112270        1.5829320        1.7616300
 H        5.2712000        1.2172310        1.4060990
 C       -2.2096270        2.0780720       -1.4087350
 C       -2.3153870        2.2173270       -2.8293470
 C       -3.2628310        1.4135070       -0.7044810
 C       -3.4795030        1.7834660       -3.4940540
 C       -4.5787380        1.1927940       -2.8058100
 H       -3.5106330        1.8963300       -4.5746810
 C       -4.4145970        0.9941610       -1.4061940
 H       -5.1851340        0.4822510       -0.8339920
 C       -1.2016540        2.7960690       -3.6871520
 H       -1.2151800        3.8978410       -3.6916130
 H       -1.3178650        2.4723570       -4.7298630
 H       -0.2163310        2.4631420       -3.3497630
 C       -3.2185970        1.0457610        0.7739990
 H       -3.9593210        1.6217570        1.3499840
 H       -2.2351030        1.1837690        1.2233080
 H       -3.4753720       -0.0162640        0.9009820
 C        1.6630740        5.0920040       -0.8689610
 C        2.9629090        5.3188470       -0.0350950
 C        1.9857180        4.4126570       -2.2290670
 C        1.1479130        6.5247990       -1.2101970
 H        2.7348460        5.8226260        0.9177630
 H        3.6513080        5.9700430       -0.5948800
 H        3.4926230        4.3963720        0.2000450
 H        1.1597620        4.5349020       -2.9416040
 H        2.1898550        3.3467560       -2.1348950
 H        2.8701670        4.8884770       -2.6790870
 H        0.9978210        7.1441170       -0.3173120
 H        0.2198100        6.5183840       -1.7938160
 H        1.9104210        7.0223190       -1.8283670
 N       -5.7452400        0.8030000       -3.4768210
 C       -5.8439280        0.9449650       -4.9359230
 C       -6.8295980        0.1307040       -2.7487220
 H       -6.8399030        0.6292570       -5.2678550
 H       -5.0986360        0.3269450       -5.4690820
 H       -5.7053680        1.9930690       -5.2506860
 H       -6.5167630       -0.8465840       -2.3371860
 H       -7.6719050       -0.0463510       -3.4276120
 H       -7.2000080        0.7487860       -1.9136420
 C       -2.0340300        4.9581260        0.1881350
 C       -2.4020990        4.4105130        1.5926640
 C       -1.6502870        6.4560820        0.4005620
 C       -3.3150840        4.9842890       -0.7076160
 H       -1.6340990        4.6534530        2.3350270
 H       -2.5522080        3.3328700        1.5951320
 H       -3.3377170        4.8812230        1.9308850
 H       -2.4705870        6.9439490        0.9482330
 H       -1.5231800        6.9979510       -0.5436790
 H       -0.7427740        6.5820420        1.0029080
 H       -3.8123520        4.0140930       -0.7721670
 H       -3.0839050        5.3164980       -1.7312210
 H       -4.0365510        5.7013980       -0.2865750
 C        0.4378480        2.8979430        3.1410320
 H       -0.3841660        2.5295360        2.5259120
 H        0.3511700        3.9934420        3.2163550
 H        0.2993530        2.4929600        4.1516010
 C        3.8394690        1.7761600       -0.6559680
 H        4.4115930        2.6642680       -0.9675030
 H        3.0412470        1.6197450       -1.3781040
 H        4.5159180        0.9144130       -0.7403420
 N        5.0493670        1.3897740        4.1079240
 C        6.3400440        0.8296100        3.6850940
 C        4.7329860        1.4499640        5.5412500
 H        6.2252900       -0.1380360        3.1635050
 H        6.9730830        0.6643590        4.5648710
 H        6.8796210        1.5174200        3.0122000
 H        3.9429160        0.7317000        5.8273990
 H        4.4010190        2.4587270        5.8393220
 H        5.6306030        1.2128370        6.1244900
