85
Mol_000301_2D_DFT last geometry from G09 out file
 Ru        0.2404530        0.1028300       -0.0276340
 C       -1.0567410       -0.7486100       -0.9689490
 Cl       -0.6405720       -0.1691250        2.2073050
 Cl        1.8995210       -0.0845300       -1.8307770
 H       -1.8251450       -0.3568130       -1.6375940
 H       -1.0079180       -1.8568080       -0.8757190
 C       -0.1026570        2.0237130       -0.1705060
 N        0.7508950        2.9192400        0.4686840
 N       -1.0494140        2.7534330       -0.8668020
 C        0.5480180        4.3435660        0.0037320
 C        1.7729750        2.4942250        1.4289410
 C       -0.8493780        4.2584250       -0.7329170
 H        0.4605760        4.9772870        0.8916670
 H       -0.7426070        4.6548130       -1.7493970
 C        1.7238650        2.8251430        2.8198580
 C        2.8526110        1.7163930        0.9433480
 C        2.7888020        2.3707750        3.6366260
 C        3.8614240        1.5807490        3.1662190
 H        2.7663080        2.6217110        4.6976080
 C        3.8711520        1.2521550        1.7927170
 H        4.6744800        0.6435890        1.3740260
 C       -2.1795530        2.1704100       -1.5741130
 C       -2.2770710        2.1410570       -2.9965610
 C       -3.2256350        1.6181830       -0.7915200
 C       -3.4686380        1.6110390       -3.5599530
 C       -4.5339420        1.0937190       -2.7911930
 H       -3.5600980        1.5868330       -4.6463060
 C       -4.3813860        1.0855840       -1.3823250
 H       -5.1611140        0.6611710       -0.7474930
 C       -1.1516410        2.6031500       -3.9349720
 C       -1.5740530        3.8056000       -4.8271680
 C       -0.6133240        1.4347540       -4.8111610
 H       -0.3126760        2.9256390       -3.3102110
 H       -0.7165270        4.1541730       -5.4232260
 H       -1.9398910        4.6533150       -4.2296650
 H       -2.3728790        3.5264060       -5.5298230
 H       -1.3835040        1.0454090       -5.4934140
 H       -0.2470280        0.6079600       -4.1896600
 H        0.2299860        1.7863940       -5.4255920
 H       -3.1109200        1.5793620        0.2888930
 C        1.7660360        4.9523900       -0.8510730
 C        2.1960430        4.0422920       -2.0328840
 C        1.3830810        6.3482540       -1.4343270
 C        2.9955630        5.2021200        0.0783880
 H        2.4058520        3.0153240       -1.7229930
 H        3.1108600        4.4467850       -2.4914440
 H        1.4335550        4.0068830       -2.8208370
 H        2.2424650        6.7402230       -1.9981700
 H        1.1478510        7.0768290       -0.6472020
 H        0.5362980        6.3066630       -2.1316460
 H        3.4402820        4.2775370        0.4544210
 H        2.7282090        5.8290320        0.9424710
 H        3.7744650        5.7375040       -0.4853640
 C       -5.7992050        0.5673140       -3.4481090
 H       -5.6156830        0.2380380       -4.4805420
 H       -6.5782230        1.3477410       -3.4863750
 H       -6.2201520       -0.2821320       -2.8907220
 C       -2.0645950        5.0869580       -0.0854540
 C       -2.5461570        4.5317240        1.2842530
 C       -1.6423890        6.5749320        0.1308770
 C       -3.2739100        5.1419220       -1.0740340
 H       -1.8498500        4.7825230        2.0927670
 H       -2.6794630        3.4462990        1.2776480
 H       -3.5142730        4.9851750        1.5442500
 H       -1.3912950        7.0746000       -0.8138830
 H       -0.7941810        6.6879480        0.8173200
 H       -2.4897060        7.1185080        0.5745400
 H       -3.7904530        4.1849410       -1.1743110
 H       -2.9615060        5.4687980       -2.0767690
 H       -4.0071970        5.8753320       -0.7061150
 C        0.5884610        3.6237360        3.4771410
 C        1.0584080        5.0303970        3.9515700
 C       -0.0807950        2.8547780        4.6515880
 H       -0.1897920        3.7622570        2.7217810
 H        1.8120970        4.9508290        4.7487730
 H        0.2077140        5.6011800        4.3561710
 H        1.5047520        5.6158720        3.1349300
 H        0.6022040        2.7300320        5.5045230
 H       -0.4127540        1.8612860        4.3287600
 H       -0.9586380        3.4145660        5.0116690
 H        2.9085250        1.4809580       -0.1145400
 C        4.9396740        1.0770850        4.1106250
 H        4.6411040        0.1190920        4.5691810
 H        5.1274720        1.7858700        4.9302380
 H        5.8897940        0.9040830        3.5853380
