71
Mol_000303_2D_DFT last geometry from G09 out file
 Ru        0.3298000        0.0409260       -0.1868890
 C       -1.2126530       -0.8158040       -0.6066290
 Cl        0.3359730       -0.3153840        2.1970660
 Cl        1.3169200       -0.0344620       -2.4026850
 H       -2.1985630       -0.4282860       -0.8666010
 H       -1.0993240       -1.9217340       -0.6226900
 C        0.0010870        1.9569040       -0.1781010
 N        1.0320070        2.8381930        0.1898180
 N       -1.0785150        2.7214510       -0.5941920
 C        0.7280100        4.2731380       -0.2143970
 C        1.9943890        2.5787710        1.2678790
 C       -0.8058440        4.2257260       -0.5511540
 H        0.8959190        4.9005170        0.6688340
 H       -0.9657480        4.5977980       -1.5707660
 C        1.6338210        3.0616620        2.5540120
 C        3.2442100        1.9143220        1.0915490
 C        2.4701460        2.9234900        3.6660330
 C        3.7047820        2.2714910        3.4808560
 H        2.1774990        3.2831830        4.6492400
 C        4.0815800        1.7722860        2.2259290
 H        5.0403780        1.2676310        2.1262310
 C       -2.1990750        2.2143490       -1.3723910
 C       -2.1143060        2.3288680       -2.7821600
 C       -3.3672690        1.6577770       -0.7660920
 C       -3.1754870        1.9501000       -3.6172400
 C       -4.3403600        1.4416490       -3.0117840
 H       -3.1061510        2.0305990       -4.6992170
 C       -4.4336410        1.2815790       -1.6177170
 H       -5.3441830        0.8608300       -1.1962120
 H       -1.1933180        2.6945450       -3.2285100
 C       -3.5268840        1.4293400        0.7283480
 H       -4.0028660        2.2924220        1.2168940
 H       -2.5713200        1.2446870        1.2269770
 H       -4.1757340        0.5627880        0.9145340
 C        1.6841750        4.8445180       -1.3607780
 C        3.1440660        4.9363020       -0.8226650
 C        1.6555270        3.9848190       -2.6541630
 C        1.2703370        6.2997370       -1.7413750
 H        3.1918900        5.4940160        0.1254280
 H        3.7714330        5.4716090       -1.5502800
 H        3.5965670        3.9562840       -0.6642360
 H        0.6984850        4.0793770       -3.1873050
 H        1.8342990        2.9229080       -2.4629210
 H        2.4354880        4.3361460       -3.3456510
 H        1.9538200        6.6654210       -2.5214470
 H        1.3459460        6.9906720       -0.8908830
 H        0.2547420        6.3645570       -2.1519120
 N       -5.4951080        1.0451070       -3.8676400
 O       -6.5346150        0.5516870       -3.2918830
 O       -5.3917700        1.2225350       -5.1373190
 C       -1.7825120        5.0856360        0.3804590
 C       -1.8286990        4.5837540        1.8511430
 C       -1.3249510        6.5782140        0.4084730
 C       -3.2213800        5.1046300       -0.2240310
 H       -0.9310450        4.8863620        2.4065800
 H       -1.9303010        3.4967670        1.9251340
 H       -2.6849750        5.0376550        2.3711790
 H       -2.0043920        7.1395820        1.0662860
 H       -1.3710430        7.0452250       -0.5840250
 H       -0.3117090        6.7115600        0.8061430
 H       -3.2081610        5.3930810       -1.2861450
 H       -3.8312310        5.8488340        0.3087850
 H       -3.7379340        4.1466690       -0.1424410
 H        0.6620470        3.5233510        2.6887310
 C        3.7533610        1.3323970       -0.2130430
 H        4.7991190        1.6285710       -0.3823210
 H        3.1629750        1.6291890       -1.0791120
 H        3.7388040        0.2326000       -0.1778420
 N        4.6256590        2.1064810        4.6394280
 O        4.2589260        2.5924820        5.7735330
 O        5.7402840        1.4928150        4.4483430
