73
Mol_000302_2D_DFT last geometry from G09 out file
 Ru        0.3176170        0.0461270       -0.0763470
 C       -1.1778060       -0.8280380       -0.6116320
 Cl        0.1178680       -0.3248390        2.3047630
 Cl        1.4158720       -0.1467620       -2.2551320
 H       -2.1129290       -0.4484570       -1.0262800
 H       -1.0787150       -1.9343250       -0.5453770
 C       -0.0238910        1.9781220       -0.1468730
 N        0.9569470        2.8720810        0.3030650
 N       -1.0680770        2.7051080       -0.6968650
 C        0.6600630        4.3101210       -0.1155060
 C        1.9408450        2.5507910        1.3638590
 C       -0.7900700        4.2119870       -0.7457060
 H        0.6254090        4.9169950        0.7978940
 H       -0.7154360        4.4771680       -1.8067100
 C        1.6028400        2.8691130        2.7217970
 C        3.2098890        1.9490060        1.0799110
 C        2.5422600        2.6260090        3.7485830
 C        3.7930320        2.0489020        3.4766170
 H        2.2678240        2.8637620        4.7774540
 C        4.1032340        1.7037730        2.1551150
 H        5.0628320        1.2352380        1.9298950
 C       -2.2295370        2.1221930       -1.3677550
 C       -2.2820270        2.1087760       -2.7991890
 C       -3.3229210        1.6010810       -0.6028730
 C       -3.4627890        1.6567710       -3.4354880
 C       -4.5704140        1.2093950       -2.6940100
 H       -3.5010450        1.6468780       -4.5258490
 C       -4.4832080        1.1664640       -1.2928370
 H       -5.3200050        0.7764850       -0.7101570
 C       -1.1210120        2.5312880       -3.6821010
 H       -0.1574740        2.2504860       -3.2506250
 H       -1.1187270        3.6177460       -3.8683910
 H       -1.1970030        2.0414780       -4.6619100
 C       -3.3252370        1.4128050        0.9079120
 H       -4.0602720        2.0764220        1.3890500
 H       -2.3499160        1.5690040        1.3690150
 H       -3.6254260        0.3827400        1.1505860
 C        1.7946600        4.9685370       -1.0471930
 C        3.0769780        5.2187170       -0.1931290
 C        2.1242700        4.1055650       -2.2974150
 C        1.3846840        6.3743470       -1.5858140
 H        2.8490240        5.8297300        0.6945220
 H        3.8145950        5.7737160       -0.7919410
 H        3.5543640        4.3013640        0.1505770
 H        1.3435630        4.1963650       -3.0637030
 H        2.2427460        3.0479370       -2.0654520
 H        3.0613250        4.4597120       -2.7518810
 H        1.2364190        7.1090190       -0.7851570
 H        0.4839150        6.3460050       -2.2101320
 H        2.2019140        6.7461610       -2.2218530
 H       -5.4754280        0.8719960       -3.2017170
 C       -1.9485540        5.1744570       -0.1681040
 C       -2.4186360        4.8339560        1.2708260
 C       -1.4834520        6.6638720       -0.1256980
 C       -3.1808900        5.1556010       -1.1307010
 H       -2.6055730        3.7713800        1.4106890
 H       -3.3563830        5.3699200        1.4816250
 H       -1.6902190        5.1573980        2.0225470
 H       -2.2922950        7.2608890        0.3212330
 H       -1.2906320        7.0759680       -1.1229530
 H       -0.5927750        6.8146230        0.4955640
 H       -3.7433490        4.2199910       -1.0909450
 H       -2.8812210        5.3303720       -2.1751660
 H       -3.8693860        5.9666020       -0.8495650
 C        0.2593920        3.4284510        3.1469250
 H       -0.5566570        3.0382260        2.5377280
 H        0.2392140        4.5282850        3.0920630
 H        0.0524390        3.1554590        4.1896460
 C        3.7375210        1.5664050       -0.2932860
 H        4.4649130        2.3128800       -0.6508120
 H        2.9682750        1.4541340       -1.0524160
 H        4.2694050        0.6064030       -0.2360260
 H        4.5016380        1.8526590        4.2827090
