77
Mol_000211_2D_DFT last geometry from G09 out file
 Ru        0.0262850       -0.1664800        0.4807890
 C       -1.3509980       -1.0757350       -0.2775640
 Cl       -0.7108680        0.0433730        2.7755630
 Cl        1.6697800       -0.8180580       -1.1604400
 H       -2.1025460       -0.7389240       -0.9945830
 H       -1.3662960       -2.1573290       -0.0239170
 C       -0.2662320        1.7112780        0.0362590
 N        0.7328270        2.6601210        0.2520240
 N       -1.4086910        2.3855340       -0.3748290
 C        1.9214790        2.3777550        1.0557960
 C        0.3049350        4.0792760       -0.2169080
 C        3.2158580        2.0891220        0.5113780
 C        1.7421420        2.4106070        2.4662270
 C        4.2672110        1.8440250        1.4304390
 C        4.0617540        1.8981530        2.8172360
 H        5.2590830        1.5951580        1.0612320
 C        2.7940200        2.1762160        3.3606460
 H        2.6402660        2.1929380        4.4363400
 C       -1.2952010        3.9146750       -0.1037660
 C       -2.4846140        1.7855950       -1.1412850
 C       -3.6979630        1.2880980       -0.5654180
 C       -2.2857220        1.7050810       -2.5462400
 C       -4.6836920        0.7861080       -1.4518990
 C       -4.4751510        0.7582440       -2.8402880
 H       -5.6178660        0.3924330       -1.0586170
 C       -3.2655630        1.1994930       -3.4114200
 H       -3.1065860        1.1417990       -4.4852930
 N       -5.5504970        0.2272000       -3.7275640
 O       -5.3319860        0.2132580       -4.9951030
 O       -6.6398420       -0.1844250       -3.1808970
 C        0.8602770        4.2313520       -1.6844190
 C        0.7575610        5.5773910       -2.4540680
 H        1.9252660        4.0033030       -1.6034760
 H        0.4357520        3.4297680       -2.3053110
 H        0.9837810        6.4494430       -1.8279090
 H       -0.2215310        5.7458590       -2.9146680
 H        1.4967450        5.5670690       -3.2707400
 C        0.8376610        5.2146230        0.7134660
 C        2.3207920        5.6542660        0.6425260
 H        0.2254090        6.1003730        0.4942440
 H        0.6225570        4.9467520        1.7529790
 H        3.0144760        4.8706560        0.9602170
 H        2.4585530        6.5051150        1.3284840
 H        2.6244030        5.9937350       -0.3546520
 C       -2.0520350        4.7886820       -1.1519500
 C       -3.5958870        4.9062190       -1.1043370
 H       -1.6470900        5.8047340       -1.0478190
 H       -1.7765600        4.4554260       -2.1578050
 H       -4.1049100        3.9601890       -1.3100820
 H       -3.9094530        5.6181790       -1.8842760
 H       -3.9703480        5.2913550       -0.1488760
 C       -1.8899110        4.1184830        1.3441880
 C       -2.0927930        5.5371730        1.9448330
 H       -2.8787730        3.6539130        1.3042090
 H       -1.3113050        3.5093970        2.0513360
 H       -2.4865360        6.2622050        1.2215160
 H       -1.1808860        5.9628140        2.3767690
 H       -2.8279630        5.4651290        2.7619660
 C        3.5659400        1.9763170       -0.9695960
 C        4.6204520        2.9981390       -1.4737200
 H        2.6637090        2.0281880       -1.5822050
 H        3.9646990        0.9654730       -1.1360410
 H        4.2850510        4.0391420       -1.3670200
 H        4.8259290        2.8160650       -2.5396640
 H        5.5743580        2.9018860       -0.9354070
 H        0.7487100        2.5942310        2.8622790
 N        5.2110610        1.6438050        3.7335450
 O        6.3581780        1.3842690        3.2116810
 O        4.9958680        1.7046710        5.0002260
 C       -3.9661500        1.1674410        0.9323710
 C       -5.2257220        1.9148020        1.4434000
 H       -3.0877620        1.4749090        1.5030450
 H       -4.0967030        0.0963160        1.1594440
 H       -6.1458090        1.5527310        0.9621690
 H       -5.1656540        2.9986030        1.2697210
 H       -5.3344380        1.7513030        2.5260440
 H       -1.3339990        2.0339160       -2.9579150
