83
M00000227_2D_DFT last geometry from G09 out file
 Ru        0.5497770        0.0576830       -0.5695270
 C       -0.9158270       -0.8240180       -1.1719550
 Cl        0.4675990       -0.6160440        1.7539960
 Cl        1.6249920        0.2334420       -2.7444490
 H       -1.8973660       -0.4456290       -1.4615080
 H       -0.7505370       -1.9174900       -1.2959660
 C        0.0905260        1.9472570       -0.3761310
 N        1.0736120        2.8363490        0.0754170
 N       -1.0462990        2.6726520       -0.6874020
 C        0.6563830        4.2922280       -0.1018950
 C        2.1126970        2.4492780        1.0278500
 C       -0.8660910        4.1807950       -0.4985880
 H        0.7499290        4.7741190        0.8789380
 H       -1.0019140        4.6278240       -1.4904970
 C        1.8306510        2.5633640        2.4142620
 C        3.4250190        1.9736730        0.7159750
 C        2.6988070        2.2606900        3.4559270
 C        4.0004000        1.7697190        3.1437710
 H        2.3348710        2.3704950        4.4723730
 C        4.3184220        1.6455710        1.7611180
 H        5.2959110        1.2728790        1.4657520
 C       -2.1778770        2.1495720       -1.4210030
 C       -2.2907320        2.3955320       -2.8094680
 C       -3.2506420        1.4117620       -0.8308240
 C       -3.3525120        1.9947950       -3.6185870
 C       -4.4320010        1.2704810       -3.0315230
 H       -3.3101290        2.2397050       -4.6750340
 C       -4.3342670        0.9909490       -1.6334430
 H       -5.1186610        0.4206250       -1.1430290
 F       -1.2604280        3.1106130       -3.4534420
 C       -3.2787310        1.0268650        0.6411880
 H       -2.2794140        0.9479500        1.0758620
 H       -3.7744370        0.0548480        0.7717550
 H       -3.8505490        1.7610780        1.2286890
 C        1.5877500        5.1130720       -1.1144800
 C        2.9972990        5.3066000       -0.4752170
 C        1.7136930        4.4295930       -2.5046850
 C        1.0374830        6.5524890       -1.3584120
 H        3.5964760        5.9835450       -1.1029170
 H        3.5511330        4.3727870       -0.3788050
 H        2.9241570        5.7620690        0.5251540
 H        1.9739840        3.3713530       -2.4354960
 H        2.4960420        4.9342500       -3.0918900
 H        0.7807400        4.4962150       -3.0771330
 H        1.7156030        7.0683710       -2.0546120
 H        0.9981090        7.1483560       -0.4371450
 H        0.0429240        6.5564340       -1.8206300
 N       -5.5228990        0.8489850       -3.7955250
 C       -5.5550920        1.1073050       -5.2427620
 C       -6.6175530        0.0900210       -3.1740150
 H       -5.5308410        2.1879920       -5.4651520
 H       -6.4803770        0.7013310       -5.6667580
 H       -4.7076150        0.6302250       -5.7653300
 H       -7.0897650        0.6552350       -2.3527310
 H       -6.2741540       -0.8791540       -2.7705090
 H       -7.3907680       -0.1149150       -3.9230520
 C       -1.9443490        4.8974120        0.4489590
 C       -2.0616850        4.2694090        1.8646880
 C       -1.5843830        6.4027150        0.6522630
 C       -3.3435340        4.8959320       -0.2471210
 H       -1.2169330        4.5511970        2.5019670
 H       -2.1008310        3.1793400        1.8394890
 H       -2.9786250        4.6357150        2.3518150
 H       -2.3325770        6.8491190        1.3243350
 H       -1.6062850        6.9706680       -0.2865110
 H       -0.6046860        6.5446460        1.1240640
 H       -3.8080900        3.9076460       -0.2741860
 H       -3.2814780        5.2691570       -1.2811580
 H       -4.0232650        5.5643290        0.3029340
 F        0.5513690        3.0124460        2.7987680
 C        3.9621030        1.7850830       -0.6939690
 H        3.2627780        2.0934620       -1.4666060
 H        4.1914450        0.7264350       -0.8807250
 H        4.8997010        2.3480030       -0.8219120
 N        4.9092080        1.4308990        4.1494820
 C        6.2198110        0.8631990        3.8028130
 C        4.5110780        1.5118640        5.5623140
 H        6.1261290       -0.0898460        3.2524480
 H        6.7871450        0.6672620        4.7199030
 H        6.8135710        1.5585270        3.1855420
 H        4.2188310        2.5379550        5.8430760
 H        5.3561620        1.2233190        6.1977470
 H        3.6670800        0.8382380        5.7944780
