97
M00000224_2D_DFT last geometry from G09 out file
 Ru        0.5166940        0.0545980       -0.8758550
 C       -1.0435110       -0.8341300       -0.5246760
 Cl        1.5325190       -0.9192670        1.1544340
 Cl        0.3078940        0.2987980       -3.3026810
 H       -1.8396010       -0.5246690        0.1558920
 H       -1.1385240       -1.8651320       -0.9277500
 C        0.0459840        1.8456650       -0.3248030
 N        1.0314190        2.7621490        0.1022900
 N       -1.1450000        2.5715700       -0.4583880
 C        0.6060920        4.1961250       -0.1061710
 C        2.1069180        2.4651310        1.0369560
 C       -0.9509640        4.0788020       -0.2771150
 H        0.8394700        4.7541210        0.8071370
 H       -1.2461510        4.5377110       -1.2305280
 C        1.9381870        2.8532640        2.3816220
 C        3.3609360        1.8831990        0.6841500
 C        2.9583260        2.7068300        3.3395580
 C        4.2199570        2.1647780        2.9992890
 H        2.7439660        3.0099800        4.3620190
 C        4.3825710        1.7612080        1.6547310
 H        5.3148700        1.3056850        1.3329380
 C       -2.3121940        2.0980290       -1.1970590
 C       -2.3149250        2.2953670       -2.5921790
 C       -3.4840420        1.5200710       -0.6084290
 C       -3.4038100        1.9289170       -3.4041000
 C       -4.5670250        1.3487260       -2.8512930
 H       -3.3131050        2.0848100       -4.4762420
 C       -4.5702390        1.1660170       -1.4485150
 H       -5.4387300        0.7287790       -0.9662140
 H       -1.4241740        2.6982440       -3.0620680
 C       -3.6285150        1.2383770        0.8575430
 O       -4.9821410        1.2161880        1.2424620
 O       -2.7136050        1.0325200        1.6840390
 C       -5.2521040        0.8724440        2.6558640
 H       -4.7909060        1.6098800        3.3269720
 H       -6.3440830        0.8949480        2.7409250
 H       -4.8581680       -0.1256010        2.8926350
 C        1.4048860        4.9234240       -1.2895140
 C        2.9041500        5.0711850       -0.8864340
 C        1.3133490        4.1572960       -2.6368830
 C        0.8678670        6.3695580       -1.5164190
 H        3.4324610        4.1147590       -0.8726800
 H        3.0164440        5.5356230        0.1057530
 H        3.4190680        5.7172430       -1.6132880
 H        1.6012690        3.1065450       -2.5434100
 H        1.9836050        4.6280730       -3.3722860
 H        0.3009850        4.1957190       -3.0620340
 H        0.9840020        7.0011910       -0.6251340
 H       -0.1866040        6.3907960       -1.8201570
 H        1.4450470        6.8371970       -2.3279480
 C       -5.7889850        0.9057120       -3.7004730
 C       -6.0030260       -0.6333700       -3.5298330
 C       -7.0656890        1.6669160       -3.2177560
 C       -5.5953200        1.1997560       -5.2146520
 H       -6.8610360       -0.9668040       -4.1334120
 H       -6.2033840       -0.9074740       -2.4847300
 H       -5.1144270       -1.1917460       -3.8597790
 H       -7.9401270        1.3533720       -3.8082220
 H       -6.9447560        2.7540680       -3.3385510
 H       -7.2892100        1.4695250       -2.1602220
 H       -5.4601640        2.2738830       -5.4112900
 H       -6.4865800        0.8730710       -5.7699610
 H       -4.7320570        0.6598870       -5.6305330
 C       -1.8425020        4.8016960        0.8395450
 C       -1.6816380        4.1760270        2.2533330
 C       -1.4513110        6.3106380        0.9415450
 C       -3.3472600        4.7987680        0.4234580
 H       -0.7413030        4.4922050        2.7253780
 H       -1.7140600        3.0834860        2.2309090
 H       -2.4933020        4.5280950        2.9083520
 H       -1.6400230        6.8526940        0.0051840
 H       -0.4032400        6.4657100        1.2250140
 H       -2.0682540        6.7788730        1.7228710
 H       -3.9039810        5.4986960        1.0646870
 H       -3.8242450        3.8237380        0.5256670
 H       -3.4792170        5.1310540       -0.6177930
 H        0.9791730        3.2516820        2.6963020
 C        3.5937680        1.3069690       -0.6600830
 O        4.9205130        1.3484870       -1.0615410
 O        2.7100090        0.7987500       -1.3955960
 C        5.2427720        0.6880840       -2.3521360
 H        6.3192290        0.8448450       -2.4774460
 H        4.9990670       -0.3816060       -2.2999720
 H        4.6742050        1.1501540       -3.1695470
 C        5.3734750        1.9735390        4.0202970
 C        6.6387030        2.7493090        3.5309780
 C        5.0051500        2.4981540        5.4367190
 C        5.7074070        0.4509190        4.1389420
 H        6.9817310        2.4000200        2.5473600
 H        7.4675150        2.6104260        4.2419000
 H        6.4338260        3.8277860        3.4519670
 H        5.8575930        2.3519220        6.1159510
 H        4.1482570        1.9574790        5.8649440
 H        4.7699190        3.5731880        5.4295430
 H        4.8279850       -0.1194110        4.4719470
 H        6.5165330        0.2951030        4.8689820
 H        6.0349550        0.0260820        3.1802020
