97
Mol_000210_2D_DFT last geometry from G09 out file
 Ru        0.2581580       -0.3855760       -0.3457740
 C       -0.9826970       -1.2627030       -1.3382850
 Cl       -0.4161360       -1.2201940        1.8246600
 Cl        1.8801950        0.0372000       -2.1177000
 H       -1.9386420       -0.9178780       -1.7360470
 H       -0.7177650       -2.3237940       -1.5437880
 C       -0.3550270        1.4632160       -0.1770620
 N        0.3786200        2.3491500        0.6054900
 N       -1.3873470        2.1692100       -0.7675430
 C        1.5247780        1.9254000        1.4067770
 C        0.0563100        3.8116530        0.2287600
 C        2.7753750        1.7254600        0.7685490
 C        1.4214730        1.7093730        2.8142730
 C        3.9152830        1.3323940        1.4888530
 C        3.8476100        1.1256440        2.8867320
 H        4.8475370        1.1750130        0.9460600
 C        2.5934160        1.3188830        3.5089380
 H        2.5106750        1.1383880        4.5828500
 C       -1.4922350        3.6085660       -0.1860740
 C       -2.4242040        1.5659820       -1.5857040
 C       -3.5422820        0.9772520       -0.9432320
 C       -2.3430320        1.5336640       -3.0090950
 C       -4.6022180        0.4165860       -1.6755550
 C       -4.5741680        0.4122470       -3.0918740
 H       -5.4381520       -0.0283610       -1.1351770
 C       -3.4308980        0.9605020       -3.7183210
 H       -3.3704330        0.9340810       -4.8083320
 C       -5.7122900       -0.1850300       -3.9301260
 C       -7.0529690        0.5720390       -3.7157790
 C       -5.8809540       -1.7109030       -3.6842770
 H       -5.4370720       -0.0586570       -4.9909470
 H       -7.8315560        0.1682940       -4.3815390
 H       -6.9419270        1.6451690       -3.9329760
 H       -7.4135760        0.4729340       -2.6809830
 H       -6.1829640       -1.9245050       -2.6480920
 H       -4.9418260       -2.2501830       -3.8792590
 H       -6.6549040       -2.1230680       -4.3502620
 C        1.0227160        4.1654100       -0.9731890
 C        1.1310440        5.6118120       -1.5388880
 H        0.8137060        3.4761960       -1.8010250
 H        2.0258170        3.9017100       -0.6161600
 C        2.4017400        5.7740480       -2.4083360
 H        1.1611210        6.3553750       -0.7296870
 H        0.2603880        5.8674050       -2.1554900
 H        2.4120360        5.0524150       -3.2405700
 H        2.4564150        6.7854390       -2.8413970
 H        3.3177810        5.6120890       -1.8184040
 C        0.2393320        4.8100270        1.4118940
 C        1.6651690        5.2279500        1.8678720
 H       -0.2814720        4.4126470        2.2869990
 H       -0.2930320        5.7307000        1.1285820
 C        1.6017670        6.2911100        2.9902830
 H        2.2441730        5.6401960        1.0310750
 H        2.2256030        4.3608870        2.2344560
 H        1.0849080        7.2053290        2.6551350
 H        1.0689770        5.9124910        3.8774210
 H        2.6147720        6.5798080        3.3111900
 C       -1.9688440        4.6589020       -1.2371930
 C       -3.4618320        4.7296370       -1.6627540
 H       -1.3725410        4.5374030       -2.1455910
 H       -1.7035440        5.6454810       -0.8280030
 C       -3.7081730        5.9086380       -2.6342870
 H       -4.1173600        4.8554490       -0.7907640
 H       -3.7725330        3.8000590       -2.1521630
 H       -3.4526770        6.8760420       -2.1718120
 H       -3.1073870        5.8088080       -3.5525610
 H       -4.7667920        5.9522150       -2.9343410
 C       -2.5021310        3.5208250        1.0249890
 C       -2.9906090        4.7945140        1.7764390
 H       -2.1028070        2.8098790        1.7589900
 H       -3.4036020        3.0534310        0.6116500
 C       -4.2511210        4.4922460        2.6226770
 H       -3.2250940        5.6055000        1.0723720
 H       -2.2157610        5.1861310        2.4461910
 H       -5.0947790        4.1707010        1.9913620
 H       -4.0592490        3.6917520        3.3549350
 H       -4.5728980        5.3850660        3.1817300
 H        2.8459830        1.8429490       -0.3078690
 C        0.1358290        1.8565720        3.6090990
 H       -0.0054560        2.8896090        3.9654010
 H        0.1616800        1.2083060        4.4945660
 H       -0.7378990        1.5675070        3.0204620
 C        5.0622810        0.6721640        3.7066000
 C        6.2376530        1.6859530        3.6321510
 C        5.5229220       -0.7580160        3.3051730
 H        4.7445400        0.6233810        4.7620620
 H        6.6356020        1.7718710        2.6100080
 H        7.0632560        1.3635010        4.2856860
 H        5.9187440        2.6885740        3.9554750
 H        5.8836630       -0.7894120        2.2662570
 H        4.6964190       -1.4785560        3.3947910
 H        6.3440340       -1.0944670        3.9574890
 H       -3.5578490        0.9226920        0.1433300
 C       -1.1439720        2.0380420       -3.7937520
 H       -0.2007030        1.7015730       -3.3501120
 H       -1.1186420        3.1365960       -3.8472850
 H       -1.1780650        1.6657890       -4.8264020
