69
Mol_000211_2D_DFT last geometry from G09 out file
 Ru       -0.9806760       -0.2954630        0.4931760
 C       -1.8200520       -0.8949100       -1.0041590
 Cl       -2.7911390        0.0159090        2.0560140
 Cl        1.1595970       -1.3059130        0.0938320
 H       -1.9573220       -0.3719270       -1.9568450
 H       -2.1886330       -1.9403340       -0.9668440
 C       -0.7807870        1.5981850        0.1137550
 N        0.0354550        2.4520460        0.8746970
 N       -1.4643690        2.3981430       -0.7985630
 C        1.3327690        2.0889650        1.4206940
 C       -0.3370800        3.9347150        0.6368160
 C        2.3197220        1.6912880        0.4840800
 C        1.6885890        2.2263920        2.8004980
 C        3.6422650        1.4244760        0.8625320
 C        4.0032230        1.5638720        2.2171750
 H        4.3692830        1.1064900        0.1179790
 C        3.0351740        1.9577580        3.1604270
 H        3.3108370        2.0336780        4.2101890
 C       -0.9737690        3.8095480       -0.7699190
 H       -1.8153410        4.4997190       -0.8990100
 H       -0.2450110        3.9791810       -1.5743310
 C       -2.6144430        2.0998650       -1.6135930
 C       -2.5583570        2.2548410       -3.0352560
 C       -3.8350990        1.7683960       -0.9793180
 C       -3.7623320        2.0838630       -3.7630170
 C       -4.9734400        1.7471700       -3.1257330
 H       -3.7336980        2.1768330       -4.8468150
 C       -5.0098400        1.5813670       -1.7242710
 H       -5.9358700        1.3156050       -1.2173330
 C       -1.3055000        2.5675740       -3.8003830
 C       -0.1273810        1.7868970       -3.6581740
 C       -1.2976460        3.6327920       -4.7402870
 C        1.0183570        2.0652250       -4.4313610
 H       -0.1047830        0.9490050       -2.9641190
 C        1.0154580        3.1314760       -5.3571260
 H        1.9063380        1.4409420       -4.3184360
 C       -0.1488020        3.9152700       -5.5074670
 H        1.9031960        3.3437960       -5.9549230
 H       -0.1646380        4.7419460       -6.2196570
 H       -2.1880580        4.2516730       -4.8618780
 H       -3.8549190        1.6505430        0.1006120
 C       -1.3874740        4.4039460        1.6764930
 H       -2.2568390        3.7344220        1.6948950
 H       -1.7326060        5.4164900        1.4162320
 H       -0.9650000        4.4370770        2.6838480
 C        0.8829200        4.8772510        0.6146180
 H        1.3421810        4.9723950        1.6054030
 H        0.5476380        5.8789960        0.3080780
 H        1.6504290        4.5453960       -0.0959730
 C       -6.2346140        1.6191370       -3.9388260
 F       -7.1866200        0.7572160       -3.3512730
 F       -6.0021490        1.1332100       -5.2476510
 F       -6.8990360        2.8713000       -4.1083070
 H        2.0369890        1.5912090       -0.5605660
 C        0.7736560        2.6366580        3.9181400
 C       -0.4001190        1.9089410        4.2331350
 C        1.1345720        3.7300410        4.7519070
 C       -1.1959380        2.2698090        5.3396690
 H       -0.6969280        1.0562340        3.6297880
 C       -0.8350220        3.3644710        6.1543800
 H       -2.0924370        1.6895650        5.5623460
 C        0.3358930        4.0948550        5.8549160
 H       -1.4519330        3.6407560        7.0111430
 H        0.6289540        4.9415920        6.4781550
 H        2.0374800        4.3027510        4.5326340
 C        5.4279780        1.3487600        2.6535500
 F        6.1747170        2.5683780        2.6731920
 F        6.1445330        0.4784880        1.8036560
 F        5.5358970        0.8198560        3.9605590
