97
Mol_000232_2D_DFT last geometry from G09 out file
 Ru       -0.1131670       -0.7334330        0.5054640
 C       -1.5593090       -1.5079690       -0.2710930
 Cl       -0.8789960       -0.7453930        2.8022870
 Cl        1.5376420       -1.3993850       -1.1314530
 H       -2.3429990       -1.0737440       -0.8938410
 H       -1.6318150       -2.6022090       -0.0867890
 C       -0.2348630        1.1850690        0.0889870
 N        0.6767700        2.0905770        0.6135940
 N       -1.1006980        1.9039980       -0.7128270
 C        0.3159530        3.5393540        0.3041470
 C        1.7607410        1.7498270        1.5110830
 C       -0.6563180        3.3567690       -0.8999740
 H       -0.2588400        3.8967920        1.1678830
 H       -0.0692790        3.3704050       -1.8271520
 C        1.5759390        1.9013750        2.9179240
 C        3.0256170        1.2912270        1.0091330
 C        2.6338310        1.5379000        3.7853560
 C        3.8646000        1.0326770        3.3190160
 H        2.4734300        1.6356660        4.8610250
 C        4.0392300        0.9201180        1.9239880
 H        4.9779850        0.5443140        1.5256200
 C       -2.2223410        1.3862500       -1.4515050
 C       -2.0669470        1.0409720       -2.8268130
 C       -3.4936610        1.2166220       -0.8202680
 C       -3.2005240        0.5828780       -3.5405500
 C       -4.4737500        0.4364220       -2.9449110
 H       -3.0746370        0.3153250       -4.5917800
 C       -4.5924410        0.7373290       -1.5709230
 H       -5.5457070        0.5943750       -1.0653730
 C       -0.7257230        1.1216910       -3.5370930
 H       -0.5516610        2.1261310       -3.9556410
 H       -0.6935280        0.4127460       -4.3753940
 H        0.1109340        0.8905140       -2.8709140
 C       -3.7017460        1.5162320        0.6403870
 O       -4.5897530        0.6001980        1.2059710
 O       -3.1899380        2.4510430        1.2950540
 C       -4.8363280        0.7301380        2.6626640
 H       -5.5528130       -0.0664040        2.8901290
 H       -3.8973030        0.5809800        3.2096850
 H       -5.2556070        1.7186450        2.8961150
 C        1.5764240        4.4815600        0.1358110
 C        1.6409060        5.5482840        1.2626400
 C        1.7585590        5.1519200       -1.2492130
 H        2.4544870        3.8397410        0.2648350
 H        2.5797640        6.1183340        1.1873480
 H        1.6170510        5.0872350        2.2598850
 H        0.8122830        6.2685990        1.2034730
 H        2.6989040        5.7247340       -1.2468550
 H        0.9502290        5.8564430       -1.4874920
 H        1.8381190        4.4089700       -2.0521640
 C       -5.6771480       -0.0247220       -3.7558000
 C       -6.4208510        1.1419800       -4.4709590
 H       -5.3562060       -0.7542560       -4.5171980
 H       -6.3907790       -0.5470040       -3.0985320
 C       -7.6437070        0.6670530       -5.2913090
 H       -6.7467970        1.8792910       -3.7178500
 H       -5.7148640        1.6677300       -5.1360070
 C       -8.3780090        1.8182450       -6.0142290
 H       -8.3517250        0.1463710       -4.6227200
 H       -7.3153960       -0.0797310       -6.0358130
 H       -9.2396710        1.4408380       -6.5871160
 H       -7.7094240        2.3381260       -6.7189200
 H       -8.7544870        2.5653070       -5.2973520
 C       -1.8655070        4.3627090       -1.0665450
 C       -1.9152860        4.9455950       -2.5055250
 C       -1.9690910        5.5037740       -0.0236740
 H       -2.7781160        3.7719150       -0.9328140
 H       -1.0474030        5.5855980       -2.7219970
 H       -2.8194670        5.5604920       -2.6336490
 H       -1.9485790        4.1520450       -3.2652270
 H       -2.0579030        5.1150920        0.9984550
 H       -2.8814260        6.0861580       -0.2253150
 H       -1.1218380        6.2006870       -0.0708210
 C        0.2991670        2.4486060        3.5348230
 H       -0.5784540        2.2891660        2.9051990
 H        0.3950370        3.5296850        3.7298720
 H        0.1028640        1.9585260        4.4966030
 C        3.3596080        1.2689120       -0.4604630
 O        4.4996300        0.5021380       -0.7088130
 O        2.7737120        1.8953480       -1.3719700
 C        4.9069680        0.3723650       -2.1228710
 H        5.7965260       -0.2664880       -2.0952440
 H        4.1021890       -0.0999650       -2.7000520
 H        5.1418780        1.3573110       -2.5508240
 C        4.9834240        0.6508070        4.2790480
 C        6.0216030        1.7895740        4.5010100
 H        4.5562660        0.3660530        5.2539350
 H        5.5125650       -0.2362050        3.8943450
 C        7.1677230        1.3862740        5.4598780
 H        6.4471640        2.0862150        3.5274220
 H        5.5051860        2.6795950        4.8993890
 C        8.2085400        2.5081090        5.6710790
 H        7.6740370        0.4887070        5.0631220
 H        6.7417630        1.0948940        6.4362200
 H        9.0076120        2.1846780        6.3567320
 H        7.7430240        3.4094130        6.1010890
 H        8.6811480        2.7978440        4.7189010
