89
Mol_000228_2D_DFT last geometry from G09 out file
 Ru        0.3275040        0.3667040       -0.0233860
 C       -0.8951880       -0.5462410       -1.0049580
 Cl       -0.6794390        0.2486900        2.1786680
 Cl        2.0436080        0.1069090       -1.7859480
 H       -1.5495890       -0.2094820       -1.8118380
 H       -0.8897170       -1.6425680       -0.8088900
 C       -0.0430900        2.2778400       -0.2501110
 N        0.7612650        3.2037750        0.4022710
 N       -0.9810800        2.9608640       -0.9954110
 C        0.5271150        4.6221780       -0.0829190
 C        1.7644130        2.7866620        1.3711500
 C       -0.8231700        4.4793940       -0.8933320
 H        0.3662500        5.2363860        0.8042920
 H       -0.6728260        4.8334910       -1.9163080
 C        1.7066340        3.0234670        2.7855930
 C        2.8548890        2.0153020        0.9042430
 C        2.7059010        2.4888320        3.6300180
 C        3.7936680        1.7020040        3.1517840
 H        2.6014270        2.6788420        4.6915860
 C        3.8380750        1.4780530        1.7456820
 H        4.6273700        0.8854110        1.2901020
 C       -2.0685820        2.3114400       -1.6917290
 C       -2.1527210        2.1577350       -3.1085560
 C       -3.1013450        1.7234510       -0.9213430
 C       -3.2651790        1.5049050       -3.6899410
 C       -4.3393080        0.9802130       -2.9129410
 H       -3.2669930        1.3960270       -4.7688930
 C       -4.2073430        1.0846340       -1.4933680
 H       -4.9532620        0.6573670       -0.8279060
 C       -1.0888960        2.6486280       -4.0439880
 O       -0.8598070        1.7268610       -5.0689330
 O       -0.4699220        3.7329810       -3.9694490
 C        0.2209400        2.0580220       -6.0262200
 H        0.2181650        1.2280560       -6.7408300
 H        0.0180450        3.0146480       -6.5274010
 H        1.1821590        2.1136980       -5.4982360
 H       -3.0118150        1.7375080        0.1611960
 C        1.7709280        5.2594490       -0.8682960
 C        2.3025220        4.3577310       -2.0147180
 C        1.3745390        6.6345590       -1.4905300
 C        2.9228070        5.5632560        0.1425560
 H        2.5814710        3.3591000       -1.6676350
 H        3.2001930        4.8183940       -2.4562910
 H        1.5630170        4.2408120       -2.8133920
 H        2.2515190        7.0492880       -2.0099210
 H        1.0704800        7.3616920       -0.7258110
 H        0.5721430        6.5511620       -2.2341700
 H        3.7024530        6.1587710       -0.3569270
 H        3.4006070        4.6568480        0.5253870
 H        2.5588030        6.1471320        1.0019420
 N       -5.4488010        0.3745890       -3.5098940
 C       -5.5188200        0.2275560       -4.9709660
 C       -6.5075940       -0.2126190       -2.6760670
 H       -5.4608190        1.2045280       -5.4797970
 H       -6.4743780       -0.2329260       -5.2465930
 H       -4.7093320       -0.4125430       -5.3651590
 H       -6.9575180        0.5374950       -2.0041760
 H       -6.1355190       -1.0483500       -2.0564870
 H       -7.3052710       -0.6019920       -3.3188880
 C       -2.0966690        5.2746740       -0.3304850
 C       -2.6404900        4.7244880        1.0160700
 C       -1.7260810        6.7747880       -0.1020800
 C       -3.2371930        5.2819220       -1.3996990
 H       -1.9169070        4.8584580        1.8246450
 H       -2.8967240        3.6630650        0.9626730
 H       -3.5566940        5.2713730        1.2890760
 H       -1.4136030        7.2689750       -1.0310480
 H       -0.9386810        6.9087090        0.6489890
 H       -2.6175780        7.3031840        0.2679750
 H       -3.7199250        4.3079020       -1.5164880
 H       -2.8617100        5.5969620       -2.3852050
 H       -4.0159370        5.9983340       -1.0960810
 C        0.6458610        3.8357400        3.4592050
 O        0.3844450        3.3749860        4.7533770
 O        0.0571150        4.8374070        2.9902420
 C       -0.6497820        4.1052540        5.5165080
 H       -0.6906020        3.5923240        6.4835420
 H       -0.3715420        5.1614730        5.6398660
 H       -1.6175130        4.0408620        5.0009850
 H        2.9430770        1.8234690       -0.1594200
 N        4.7573780        1.1807940        4.0194330
 C        4.6392110        1.3818960        5.4707490
 C        5.8282790        0.3211920        3.4947830
 H        4.6538040        2.4530540        5.7355720
 H        5.4869620        0.9047130        5.9756650
 H        3.7114760        0.9410520        5.8766390
 H        6.4853840        0.0129540        4.3159630
 H        6.4480100        0.8514000        2.7518280
 H        5.4295430       -0.5922260        3.0185060
