71
Mol_000229_2D_DFT last geometry from G09 out file
 Ru        0.2868760        0.2311420        0.0551880
 C       -1.2131840       -0.6162520       -0.5184430
 Cl        0.1591910       -0.2507660        2.4058690
 Cl        1.6276110        0.2970200       -1.9479490
 H       -2.2150580       -0.2098640       -0.6789850
 H       -1.0921990       -1.7073480       -0.6863530
 C       -0.2810170        2.0839350        0.2267240
 N        0.4896330        2.9952780        0.9367900
 N       -1.4449890        2.7477000       -0.1538000
 C       -0.0872190        4.3660250        0.9071890
 C        1.8915230        2.8521870        1.2643920
 C       -1.5596750        4.1329440        0.4733970
 H        0.4603140        4.9751160        0.1716890
 H       -0.0093680        4.8229300        1.8965020
 C       -2.5507570        4.1916710        1.6782570
 C       -2.0976960        5.2658370       -0.4428850
 C       -2.7910930        5.7102320        1.9110580
 H       -2.1606590        3.6645630        2.5555860
 H       -3.4961110        3.7127870        1.3924450
 C       -2.4506200        6.4087850        0.5478430
 H       -3.8293010        5.9005860        2.2193300
 H       -2.1468430        6.0979000        2.7139010
 H       -1.5952190        7.0899600        0.6699490
 H       -3.2879880        7.0149460        0.1735230
 H       -3.0097390        4.9240710       -0.9532020
 H       -1.3752290        5.5614930       -1.2106800
 C        2.7925510        2.8662460        0.1706310
 C        2.4117250        2.7751750        2.5942040
 C        4.1814890        2.7936610        0.3578210
 C        4.7068020        2.7134080        1.6678230
 H        4.8494570        2.7990550       -0.5000980
 C        3.8160440        2.6973780        2.7618940
 H        4.2168370        2.6078300        3.7692350
 C       -2.3879030        2.3161310       -1.1497730
 C       -2.0963940        2.3396070       -2.5510590
 C       -3.6689180        1.8835860       -0.7259020
 C       -3.0901510        1.9081180       -3.4613880
 C       -4.3667350        1.4885680       -3.0276230
 H       -2.8719850        1.9072850       -4.5256110
 C       -4.6541710        1.4820850       -1.6422580
 H       -5.6276830        1.1474240       -1.2912380
 H        2.3862600        2.9284690       -0.8351540
 C        1.6397210        2.7020190        3.8850510
 O        0.4022590        3.3434570        3.8550990
 O        2.0883470        2.1664510        4.9214730
 C       -0.3900690        3.2361980        5.1063040
 H       -1.2848630        3.8402020        4.9244110
 H       -0.6517520        2.1860110        5.2901950
 H        0.1823510        3.6270720        5.9576570
 C        6.1760110        2.6427850        1.9494480
 O        6.9289770        2.6131500        0.7729630
 O        6.6917370        2.6146000        3.0893520
 C        8.3971430        2.5267590        0.9339180
 H        8.7879440        2.5174500       -0.0891840
 H        8.7737950        3.3945030        1.4927080
 H        8.6689030        1.6056730        1.4673480
 C       -0.7929020        2.8581000       -3.1032680
 O       -0.5611210        2.3500150       -4.3740350
 O       -0.0221650        3.6686460       -2.5417690
 C        0.7097310        2.7344190       -5.0307580
 H        0.6637940        2.2558150       -6.0144670
 H        0.7795730        3.8268750       -5.1240680
 H        1.5543370        2.3503360       -4.4458270
 H       -3.8714840        1.8241690        0.3409630
 C       -5.3615340        1.0627290       -4.0630750
 O       -6.5579260        0.6307690       -3.4863170
 O       -5.1668550        1.0822630       -5.2990630
 C       -7.6124090        0.1735930       -4.4196930
 H       -8.4484380       -0.1144390       -3.7736020
 H       -7.9005890        0.9869200       -5.0994610
 H       -7.2558290       -0.6828450       -5.0079450
