79
Mol_000260_2D_DFT last geometry from G09 out file
 Ru        1.0112080        0.3589780        0.2410760
 C       -0.0738370       -0.9013230       -0.4888680
 Cl        0.6776510       -0.1043910        2.5821130
 Cl        2.4448800        0.8526490       -1.6475630
 H       -1.0937650       -0.8002980       -0.8678620
 H        0.3729570       -1.9182850       -0.5342910
 C       -0.0238440        1.9947510        0.1382670
 N        0.4294840        3.1579050        0.7569330
 N       -1.1931320        2.3245100       -0.5353840
 C        1.6621730        3.3403810        1.5035700
 C       -0.3491620        4.3588440        0.3425640
 C        2.8806640        3.4382560        0.7901560
 C        1.6415290        3.5092470        2.9184040
 C        4.0923260        3.6594190        1.4669830
 C        4.1148670        3.8000750        2.8759400
 H        5.0207200        3.7166060        0.8959800
 C        2.8827560        3.7277840        3.5652570
 H        2.8854560        3.8307000        4.6525370
 C       -1.6159270        3.7344790       -0.2683070
 H       -2.4666580        3.7434730        0.4331360
 H       -1.9285250        4.2254020       -1.1977350
 C       -2.1641050        1.4573140       -1.1669990
 C       -2.1833210        1.2631340       -2.5767490
 C       -3.1594660        0.8678830       -0.3503250
 C       -3.2201630        0.4523710       -3.1075290
 C       -4.2249760       -0.1434260       -2.3113450
 H       -3.2316110        0.2735690       -4.1850650
 C       -4.1760240        0.0760980       -0.9110990
 H       -4.9223970       -0.3826350       -0.2600150
 C       -1.1411740        1.8580150       -3.5164640
 C       -1.6532580        3.0686550       -4.3515180
 H       -0.8121440        1.0744830       -4.2188080
 H       -0.2490960        2.1580790       -2.9552160
 C       -0.5786130        3.6161700       -5.3166610
 H       -1.9811680        3.8753760       -3.6741410
 H       -2.5451800        2.7705030       -4.9274430
 H       -0.2594100        2.8449760       -6.0354110
 H       -0.9625370        4.4734750       -5.8917420
 H        0.3177280        3.9497480       -4.7703650
 H       -3.1105180        1.0122360        0.7298530
 H       -0.5637240        5.0029140        1.2029200
 H        0.2277310        4.9422100       -0.3947180
 C       -5.3369920       -0.9748090       -2.9385960
 C       -6.6167850       -0.1480960       -3.2610720
 H       -4.9752480       -1.4399690       -3.8697680
 H       -5.6134890       -1.7990130       -2.2605750
 C       -7.7383580       -0.9933960       -3.9103290
 H       -6.9947060        0.3118780       -2.3322050
 H       -6.3489030        0.6848910       -3.9332240
 C       -9.0128720       -0.1783530       -4.2232990
 H       -7.9978610       -1.8322290       -3.2403840
 H       -7.3586930       -1.4486650       -4.8421580
 H       -9.7856290       -0.8119650       -4.6865040
 H       -8.7977570        0.6490120       -4.9185070
 H       -9.4427870        0.2578780       -3.3074680
 H        2.8761550        3.3197160       -0.2910360
 C        0.3677980        3.4476880        3.7543300
 C       -0.0527470        4.8082560        4.3829160
 H        0.5189310        2.7216530        4.5689730
 H       -0.4599820        3.0532560        3.1523550
 C       -1.3323050        4.6961440        5.2410490
 H       -0.2089110        5.5565040        3.5868550
 H        0.7691950        5.1966350        5.0061930
 H       -1.1930670        3.9852370        6.0709670
 H       -1.6047880        5.6707310        5.6759270
 H       -2.1886660        4.3436390        4.6438050
 C        5.4280440        3.9803660        3.6265690
 C        6.1235570        2.6313790        3.9757750
 H        6.1229900        4.5856690        3.0211190
 H        5.2532870        4.5386590        4.5608990
 C        7.4604720        2.8169830        4.7325250
 H        5.4376310        2.0172370        4.5832230
 H        6.3029190        2.0660890        3.0459620
 C        8.1591240        1.4815570        5.0723490
 H        7.2772160        3.3802820        5.6649050
 H        8.1405900        3.4392540        4.1238350
 H        9.1059940        1.6530500        5.6086830
 H        8.3894620        0.9089940        4.1598240
 H        7.5218860        0.8489500        5.7106220
