85
Mol_000261_2D_DFT last geometry from G09 out file
 Ru       -0.0984310       -0.0019280        0.4827060
 C       -1.6216610       -0.7606530       -0.1499650
 Cl       -0.6254710        0.0083920        2.8399700
 Cl        1.3802220       -0.6821850       -1.3022410
 H       -2.4662840       -0.3240490       -0.6851220
 H       -1.6785360       -1.8548160        0.0385530
 C       -0.2261860        1.9172510        0.0751520
 N        0.7274260        2.8205420        0.5272470
 N       -1.1366190        2.6411050       -0.6720220
 C        0.3721410        4.2703210        0.2183540
 C        1.8426370        2.4880480        1.3880220
 C       -0.7031920        4.0913630       -0.8966680
 H       -0.1161770        4.6607310        1.1189560
 H       -0.2027230        4.1056860       -1.8727110
 C        1.7155060        2.6952090        2.7966500
 C        3.0737420        1.9856460        0.8453100
 C        2.8004750        2.3478900        3.6307670
 C        3.9944810        1.8041910        3.1141820
 H        2.7137840        2.4811660        4.7084920
 C        4.1235190        1.6277180        1.7221680
 H        5.0420640        1.2256580        1.3111480
 C       -2.3194090        2.1335470       -1.3129640
 C       -2.2786620        1.7953650       -2.6997560
 C       -3.5356590        1.9825380       -0.5743220
 C       -3.4721330        1.3684230       -3.3262670
 C       -4.6854490        1.2509500       -2.6125520
 H       -3.4550380        1.1107610       -4.3828800
 C       -4.7025180        1.5379400       -1.2307530
 H       -5.6266950        1.4125770       -0.6728250
 C       -0.9954560        1.8498420       -3.5108030
 H       -0.7840020        2.8698050       -3.8686060
 H       -1.0774570        1.2069900       -4.3969390
 H       -0.1287760        1.5155230       -2.9312520
 C       -3.6132240        2.2712940        0.9040010
 O       -4.4585770        1.3600890        1.5282210
 O       -3.0320960        3.1934200        1.5170960
 C       -4.5961360        1.4774040        3.0015730
 H       -5.3014220        0.6849090        3.2722680
 H       -3.6203050        1.3154780        3.4756750
 H       -4.9889960        2.4670730        3.2718970
 C        1.6336400        5.1798840       -0.0803270
 C        1.8002950        6.2888590        0.9945740
 C        1.7242440        5.7881020       -1.5022270
 H        2.5071300        4.5256000        0.0096750
 H        2.7463160        6.8279620        0.8335370
 H        1.8320730        5.8696180        2.0102720
 H        0.9888890        7.0294010        0.9597500
 H        2.6651180        6.3531240       -1.5880620
 H        0.9053870        6.4881200       -1.7177540
 H        1.7477410        5.0100910       -2.2750520
 C       -5.9635390        0.8099770       -3.2569740
 O       -5.7972160        0.5380750       -4.6166210
 O       -7.0624200        0.6944270       -2.6684140
 C       -7.0007490        0.0891160       -5.3518890
 H       -6.6565630       -0.0615560       -6.3806310
 H       -7.3833770       -0.8472810       -4.9234830
 H       -7.7853390        0.8566960       -5.3068700
 C       -1.9166150        5.1059850       -0.9515590
 C       -2.1299020        5.6426800       -2.3935310
 C       -1.8808230        6.2874600        0.0511230
 H       -2.8116950        4.5339870       -0.6851380
 H       -2.2527240        4.8278400       -3.1202230
 H       -1.2896550        6.2698220       -2.7266500
 H       -3.0400280        6.2600290       -2.4372370
 H       -1.0350010        6.9642990       -0.1252340
 H       -1.8547280        5.9444150        1.0930980
 H       -2.8019680        6.8782410       -0.0670630
 C        0.4710940        3.2750110        3.4469280
 H       -0.4376120        3.0799810        2.8738760
 H        0.5731500        4.3647150        3.5789910
 H        0.3299260        2.8384460        4.4431610
 C        3.3459000        1.9113810       -0.6378870
 O        4.4323950        1.0828280       -0.9048520
 O        2.7525800        2.5476340       -1.5367870
 C        4.7937440        0.9052870       -2.3273980
 H        5.6428050        0.2136640       -2.3099650
 H        3.9461460        0.4746140       -2.8743720
 H        5.0773230        1.8678570       -2.7759890
 C        5.0828600        1.4426150        4.0772190
 O        6.1887940        0.8843100        3.4344840
 O        5.0297080        1.6123990        5.3169960
 C        7.3162820        0.4740210        4.2998260
 H        8.0639780        0.0717960        3.6079900
 H        7.7121630        1.3385180        4.8503500
 H        6.9890650       -0.2930620        5.0149830
