109
Mol_000135_2D_DFT last geometry from G09 out file
 Ru        0.1446230       -0.1841260       -0.2856910
 C       -1.2683560       -1.0501690       -1.0234340
 Cl       -0.2132250       -0.7900300        2.0336570
 Cl        1.4432550       -0.0383960       -2.3336820
 H       -2.2119520       -0.6565450       -1.4047550
 H       -1.1126490       -2.1468430       -1.1282960
 C       -0.3366770        1.7059830       -0.1972640
 N        0.6228120        2.6432160        0.1840050
 N       -1.5160640        2.3740580       -0.4704730
 C        1.7537520        2.3032870        1.0551300
 C        0.1510780        4.0853890       -0.1470410
 C        3.1138710        2.1687590        0.6257070
 C        1.4466210        2.1278450        2.4295460
 C        4.0775860        1.8636800        1.6239580
 C        3.7788510        1.6902870        2.9928480
 H        5.1158720        1.7549700        1.3151420
 C        2.4273210        1.8286630        3.3843880
 H        2.1268240        1.6845490        4.4220960
 C       -1.4438430        3.8671720       -0.0264400
 C       -2.6239360        1.8232710       -1.2337290
 C       -3.7797420        1.2306080       -0.6384340
 C       -2.5329710        1.9028080       -2.6462720
 C       -4.8280780        0.8354050       -1.5125720
 C       -4.7676880        0.9486160       -2.9194640
 H       -5.7287680        0.4073320       -1.0716360
 C       -3.5765390        1.4725650       -3.4800740
 H       -3.4558770        1.5481570       -4.5609820
 C       -5.9471970        0.4950160       -3.7901560
 C       -5.5686270       -0.7030820       -4.7059200
 C       -6.5488020        1.6668990       -4.6154660
 H       -6.7392920        0.1411420       -3.1085540
 H       -6.4507060       -1.0519660       -5.2650930
 H       -5.1837850       -1.5478410       -4.1151020
 H       -4.7959960       -0.4260250       -5.4385620
 H       -6.8544370        2.4975110       -3.9612620
 H       -7.4359210        1.3275080       -5.1724880
 H       -5.8264140        2.0611120       -5.3457980
 C        0.6615650        4.3649590       -1.6158640
 C        0.5491670        5.7729280       -2.2722470
 H        0.2076430        3.6231000       -2.2875920
 H        1.7257940        4.1172600       -1.5963580
 C        1.4851530        5.8908060       -3.4999520
 H        0.8057640        6.5667280       -1.5559900
 H       -0.4751090        5.9807310       -2.6049690
 H        1.2609330        5.1156020       -4.2498820
 H        1.3717330        6.8714400       -3.9887240
 H        2.5431730        5.7787650       -3.2150890
 C        0.6782450        5.1487560        0.8637480
 C        2.1563380        5.6217380        0.8147680
 H        0.4902260        4.7879040        1.8806560
 H        0.0486420        6.0406950        0.7296460
 C        2.4033130        6.7751850        1.8159210
 H        2.4322350        5.9662050       -0.1907350
 H        2.8311810        4.7958410        1.0631440
 H        2.1822790        6.4643990        2.8495390
 H        3.4551430        7.0998360        1.7855700
 H        1.7766390        7.6530150        1.5880360
 C       -2.2460000        4.8222910       -0.9653000
 C       -3.7952150        4.8972170       -0.8784510
 H       -1.9890270        4.5932970       -2.0046920
 H       -1.8640730        5.8351670       -0.7705790
 C       -4.3551270        5.9577900       -1.8561950
 H       -4.1230670        5.1542770        0.1377620
 H       -4.2460660        3.9280860       -1.1177600
 H       -4.0973910        5.7182500       -2.9001080
 H       -5.4531030        6.0095670       -1.7890520
 H       -3.9601700        6.9629420       -1.6353450
 C       -2.0221880        3.9032890        1.4411380
 C       -2.2490740        5.2440130        2.2021470
 H       -1.4168250        3.2402160        2.0729780
 H       -3.0026000        3.4235450        1.3675680
 C       -3.2317710        5.0561960        3.3834900
 H       -2.6461230        6.0203530        1.5326230
 H       -1.3075860        5.6382200        2.6029820
 H       -3.3509540        5.9941810        3.9484450
 H       -4.2299810        4.7462070        3.0356470
 H       -2.8711470        4.2878600        4.0858800
 C        3.5824230        2.3959550       -0.8127530
 C        4.7921760        1.5551670       -1.2983290
 H        3.8510220        3.4624630       -0.9247620
 H        2.7505470        2.2017670       -1.4952310
 C        5.1154030        1.8168540       -2.7865750
 H        4.5700950        0.4862710       -1.1571910
 H        5.6918400        1.7803370       -0.7028100
 H        5.9818210        1.2184490       -3.1096380
 H        4.2640090        1.5472760       -3.4284290
 H        5.3574570        2.8778250       -2.9663490
 H        0.4088430        2.1930900        2.7439890
 C        4.8876350        1.3413570        3.9939530
 C        4.6962130       -0.0835310        4.5870280
 C        5.0268280        2.4063420        5.1170370
 H        5.8403760        1.3331560        3.4375460
 H        3.7731520       -0.1533580        5.1814670
 H        5.5414680       -0.3434120        5.2435500
 H        4.6365000       -0.8386190        3.7892140
 H        4.1232580        2.4567160        5.7429180
 H        5.2016260        3.4079640        4.6953720
 H        5.8749610        2.1606410        5.7750890
 C       -3.9314240        0.9890180        0.8649630
 C       -4.4300140       -0.4248100        1.2777470
 H       -4.6413620        1.7278450        1.2796850
 H       -2.9705050        1.1577540        1.3601070
 C       -4.5060310       -0.5846830        2.8124490
 H       -3.7456500       -1.1849960        0.8720480
 H       -5.4243360       -0.6268050        0.8480980
 H       -3.5141720       -0.4572590        3.2705270
 H       -5.1912750        0.1529210        3.2621170
 H       -4.8710630       -1.5879420        3.0825010
 H       -1.6174070        2.2912080       -3.0891850
