95
Mol_000136_2D_DFT last geometry from G09 out file
 Ru       -0.4127140       -0.2049390        1.2958490
 C       -2.0188070       -0.9997960        1.0081840
 Cl       -0.6715670        0.5128290        3.5932090
 Cl        0.9429220       -1.4412720       -0.2605630
 H       -2.8978850       -0.5851440        0.5115000
 H       -2.1162080       -2.0306190        1.4077470
 C       -0.6537110        1.5598440        0.5189660
 N        0.3804330        2.4852090        0.5307590
 N       -1.8151850        2.2236160        0.1063330
 C        1.7219050        2.0754200        0.8866880
 C       -0.0562350        3.9205050        0.1493970
 C        2.7292450        1.6771150       -0.0455600
 C        2.0858660        2.0594300        2.2536550
 C        4.0125110        1.2878590        0.3886520
 C        4.3521210        1.2499760        1.7581190
 H        4.7404300        0.9958190       -0.3652180
 C        3.3604260        1.6494170        2.6844300
 H        3.5758680        1.6357940        3.7538270
 C       -1.6643940        3.7531490        0.3693010
 C       -2.7250250        1.5937420       -0.8149110
 C       -4.1306450        1.4155930       -0.6419300
 C       -2.1875570        1.1085350       -2.0375270
 C       -4.9403730        0.8614640       -1.6587040
 C       -4.3889940        0.3918570       -2.8685740
 H       -6.0106330        0.7831920       -1.4747090
 C       -2.9860450        0.5129920       -3.0276340
 H       -2.5092170        0.1528490       -3.9406880
 C       -5.2603570       -0.2610030       -3.9307890
 C       -5.3644360       -1.8078860       -3.7723610
 H       -4.8543010       -0.0378930       -4.9307330
 H       -6.2757760        0.1651610       -3.8979330
 C       -6.2413330       -2.4613350       -4.8619180
 H       -5.7760790       -2.0422150       -2.7764960
 H       -4.3523140       -2.2442610       -3.8009350
 H       -5.8351860       -2.2756520       -5.8690310
 H       -6.2942630       -3.5515870       -4.7188390
 H       -7.2710020       -2.0702800       -4.8374050
 C        0.4140180        4.1862100       -1.3319310
 C        0.2977230        5.5955270       -1.9888430
 H       -0.0559620        3.4503270       -1.9944500
 H        1.4837790        3.9489910       -1.3375960
 C        1.2540130        5.7230870       -3.1996340
 H        0.5270880        6.3950850       -1.2701360
 H       -0.7235060        5.7838170       -2.3412870
 H        1.0551450        4.9424910       -3.9505280
 H        1.1332870        6.7005300       -3.6926180
 H        2.3084910        5.6275730       -2.8969390
 C        0.5607650        4.9800780        1.1209370
 C        2.0523280        5.3940340        0.9780320
 H        0.4029860        4.6447910        2.1526290
 H       -0.0352350        5.8954590        1.0011970
 C        2.4358650        6.4581380        2.0338980
 H        2.2526530        5.8064940       -0.0196680
 H        2.7181230        4.5313350        1.0960770
 H        2.3038480        6.0762900        3.0587900
 H        3.4901280        6.7553680        1.9225200
 H        1.8211530        7.3673730        1.9344410
 C       -2.4510910        4.6584040       -0.6258220
 C       -3.9933360        4.8222540       -0.5383620
 H       -2.2094630        4.3534740       -1.6515190
 H       -2.0206930        5.6606280       -0.4950130
 C       -4.4633260        6.0808830       -1.3057510
 H       -4.3379270        4.8937750        0.5002410
 H       -4.4998770        3.9559530       -0.9755340
 H       -5.5607650        6.1629580       -1.2786920
 H       -4.0481070        7.0028350       -0.8674450
 H       -4.1586620        6.0468360       -2.3643210
 C       -2.1391990        3.9418270        1.8652600
 C       -2.3594840        5.3527740        2.4834350
 H       -1.4692240        3.3668150        2.5180670
 H       -3.0958810        3.4156260        1.9334550
 C       -3.1855010        5.2545430        3.7897810
 H       -2.8856750        6.0189060        1.7845810
 H       -1.4066890        5.8437580        2.7187710
 H       -2.6928300        4.5985790        4.5244240
 H       -3.3086170        6.2464320        4.2528510
 H       -4.1890580        4.8425090        3.6021270
 N        2.5284980        1.6185400       -1.5239550
 O        1.3747870        1.3345040       -1.9967610
 O        3.5607360        1.8506630       -2.2650410
 H        1.3390300        2.3514130        2.9853960
 C        5.7137700        0.7485680        2.2117380
 C        5.7388220       -0.7904840        2.4591340
 H        6.0084350        1.2595130        3.1425450
 H        6.4765260        0.9957520        1.4561410
 C        7.1228550       -1.2971520        2.9174760
 H        5.4405720       -1.3103480        1.5340430
 H        4.9800520       -1.0477690        3.2165630
 H        7.4335920       -0.8215000        3.8615090
 H        7.1038360       -2.3854600        3.0818990
 H        7.8981150       -1.0865170        2.1635160
 N       -4.8579080        1.7118560        0.6242920
 O       -6.0382420        2.2244930        0.5317860
 O       -4.3074270        1.3867460        1.7378910
 H       -1.1166220        1.1959280       -2.1986550
