66
Mol_000138_2D_DFT last geometry from G09 out file
 Ru       -0.2430860       -0.1158470       -0.1182040
 C        0.1258140       -0.4877350        1.6312980
 Cl        1.9443450       -0.4404360       -1.0924280
 Cl       -2.5568690       -0.8840890        0.0201270
 H        0.1338650        0.1877200        2.4919930
 H        0.2925000       -1.5558570        1.8788400
 C       -0.2581320        1.8230470       -0.1253160
 N        0.7055010        2.7357940        0.3193700
 N       -1.1722160        2.5687720       -0.8843760
 C        0.4574090        4.1200800       -0.1806920
 C        1.7771530        2.5375370        1.2625440
 C       -0.6155390        3.9460070       -1.2897530
 H        1.3854970        4.5442160       -0.5737680
 H        0.1011730        4.7498490        0.6438150
 C        0.0022150        3.8515410       -2.7231700
 C       -1.6667460        5.0876160       -1.2638660
 C        0.5790610        5.1964250       -3.2320920
 H        0.7730270        3.0688820       -2.7477910
 H       -0.7896020        3.5408710       -3.4195550
 C       -0.4695000        6.3289530       -3.1647790
 H        1.4682680        5.4845410       -2.6462110
 H        0.9280190        5.0585970       -4.2682310
 C       -1.0747380        6.4372320       -1.7474610
 H       -1.2750780        6.1262800       -3.8917180
 H       -0.0132200        7.2886390       -3.4570010
 H       -1.8743960        7.1956750       -1.7320400
 H       -0.3035960        6.7889060       -1.0409350
 H       -2.0721380        5.2080080       -0.2519170
 H       -2.5053270        4.8229380       -1.9251090
 C        1.5137510        2.4925570        2.6666870
 C        3.1341440        2.4284210        0.8363680
 C        2.5148550        2.2320280        3.6216360
 C        3.8396420        2.0709330        3.1832190
 H        2.2509940        2.1727960        4.6755900
 C        4.1351470        2.1898510        1.8150240
 H        5.1670550        2.0735910        1.4821380
 C       -2.4971160        2.1511170       -1.2840390
 C       -2.7228060        1.4892120       -2.5264450
 C       -3.6383420        2.5072440       -0.5038660
 C       -4.0073120        1.2709350       -3.0561870
 C       -5.1212800        1.6845170       -2.3082490
 H       -4.1151790        0.7639430       -4.0126690
 C       -4.9288040        2.2693310       -1.0454880
 H       -5.7999770        2.5512220       -0.4534000
 C       -3.5485350        3.1058560        0.8973170
 C       -4.1421560        2.1867270        2.0005720
 H       -4.0932280        4.0654290        0.9135420
 H       -2.5114010        3.3252330        1.1594320
 H       -3.6314820        1.2164290        2.0225930
 H       -5.2155560        1.9999780        1.8501480
 H       -4.0170430        2.6692620        2.9814680
 H       -6.1275580        1.5226700       -2.6950270
 N        0.1649920        2.7678820        3.2313570
 O       -0.5073990        3.7608540        2.7651180
 O       -0.2407810        2.0292110        4.2041820
 C        3.5753260        2.5633300       -0.6162830
 C        4.4123380        3.8438280       -0.8873560
 H        2.7113870        2.5300150       -1.2838950
 H        4.1786660        1.6828060       -0.8787540
 H        5.3399800        3.8600350       -0.2965880
 H        3.8545890        4.7625950       -0.6499800
 H        4.6950970        3.8837040       -1.9503600
 H        4.6309820        1.8664570        3.9044540
 N       -1.6095100        0.9025680       -3.2973520
 O       -0.6685860        0.2873300       -2.6585510
 O       -1.6437550        0.9839440       -4.5797310
