83
Mol_000196_2D_DFT last geometry from G09 out file
 Ru        0.1564300       -0.2551390       -0.1120530
 C       -1.0145870       -0.9615930       -1.3058290
 Cl       -1.0104810       -0.6077670        1.9650200
 Cl        2.1076060       -0.4133660       -1.5835030
 H       -1.6535200       -0.4660310       -2.0406310
 H       -1.0346580       -2.0734760       -1.3058760
 C       -0.1018590        1.6831210       -0.1776340
 N        0.6619080        2.5232310        0.6281250
 N       -0.8976140        2.4866330       -0.9847370
 C        0.5089590        3.9791220        0.2734110
 C        1.5628640        2.1356670        1.6922830
 C       -0.5683810        3.9654940       -0.8587140
 H        0.1156760        4.4840080        1.1643840
 H       -0.1215340        4.2676570       -1.8142760
 C        1.4277320        2.6606250        3.0284840
 C        2.6696240        1.3088740        1.3886160
 C        2.4442900        2.3516520        3.9636410
 C        3.5463740        1.5262620        3.6463970
 H        2.3762220        2.7304990        4.9804220
 C        3.6434530        0.9827460        2.3462130
 H        4.4811640        0.3449610        2.0753100
 C       -2.0124800        2.0393440       -1.7825760
 C       -2.0808030        2.2301030       -3.2100720
 C       -3.1153370        1.4735660       -1.0983400
 C       -3.3095210        1.9022820       -3.8472480
 C       -4.4138220        1.3719240       -3.1457380
 H       -3.4166140        2.0333830       -4.9204650
 C       -4.3063930        1.1308390       -1.7546800
 H       -5.1404810        0.7070660       -1.2017440
 N       -1.0013800        2.7689590       -3.9612650
 C        0.2945190        2.0475020       -3.9576850
 C       -1.2958750        3.4008750       -5.2614880
 H        1.1089180        2.7426650       -4.2074700
 H        0.3004650        1.2301190       -4.7052670
 H        0.5036370        1.6067990       -2.9847380
 H       -0.4318950        4.0163820       -5.5522040
 H       -2.1709210        4.0581630       -5.1827310
 H       -1.4753960        2.6726100       -6.0779220
 H       -3.0258310        1.3119380       -0.0259990
 C        1.8806490        4.6598830       -0.0670010
 C        1.7342950        6.2026820       -0.1346970
 C        2.6035670        4.1143850       -1.3216370
 H        2.5279670        4.4461150        0.7995780
 H        2.7269140        6.6691640       -0.2241810
 H        1.2580080        6.6075830        0.7720760
 H        1.1433500        6.5261080       -1.0049480
 H        3.6229050        4.5270100       -1.3684830
 H        2.0947960        4.4060970       -2.2520270
 H        2.6902410        3.0209650       -1.3086120
 C       -5.6531610        1.0684900       -3.9263780
 O       -6.6573230        0.5190290       -3.1241250
 O       -5.8040320        1.2738190       -5.1540890
 C       -7.9296760        0.1828290       -3.7989490
 H       -8.5640230       -0.2271380       -3.0056640
 H       -8.3810030        1.0832090       -4.2381750
 H       -7.7600120       -0.5600890       -4.5903640
 C       -1.7332630        4.9879000       -0.5725300
 C       -2.6938840        4.6228040        0.5840280
 C       -2.5214490        5.4332690       -1.8314080
 H       -1.1746460        5.8824050       -0.2453360
 H       -2.1553890        4.2990680        1.4807730
 H       -3.3931930        3.8288250        0.2984790
 H       -3.2929080        5.5054480        0.8566730
 H       -3.1172450        6.3286350       -1.5949190
 H       -3.2137480        4.6615340       -2.1864490
 H       -1.8448570        5.6930360       -2.6594120
 N        0.3155200        3.4858530        3.4119950
 C       -0.9700840        2.7695640        3.6214220
 C        0.5602190        4.5153920        4.4449650
 H       -1.7913210        3.4986450        3.6723400
 H       -0.9647490        2.1905290        4.5663120
 H       -1.1609800        2.0674700        2.8074500
 H       -0.2561680        5.2525830        4.4040200
 H        1.5046290        5.0381530        4.2447650
 H        0.5943520        4.1165810        5.4791460
 H        2.7982330        0.9529560        0.3702620
 C        4.5534130        1.2596550        4.7182870
 O        5.5655660        0.3987450        4.2853750
 O        4.5205620        1.7383900        5.8769710
 C        6.6106210        0.0595200        5.2747330
 H        7.2925500       -0.6094300        4.7387550
 H        7.1316780        0.9666950        5.6107720
 H        6.1666220       -0.4459670        6.1433880
