93
Mol_000218_2D_DFT last geometry from G09 out file
 Ru        0.8019110       -0.4619780       -0.3994580
 C       -0.3935720       -1.3168240       -1.4694810
 Cl        0.1145770       -1.3382400        1.7290530
 Cl        2.6657830       -0.2993150       -1.9210540
 H       -1.2715500       -0.9149430       -1.9811020
 H       -0.1950540       -2.3994640       -1.6156080
 C        0.1682710        1.3918050       -0.3374140
 N        0.9401630        2.3792810        0.2864300
 N       -0.9892560        2.0107470       -0.8261590
 C        0.2761550        3.7143490        0.2678210
 C        2.3208120        2.2226190        0.7299130
 C       -1.0155300        3.5252890       -0.5788200
 H        0.9386340        4.4654730       -0.1687280
 H        0.0337920        4.0300120        1.2883290
 C       -2.2781120        4.0665600        0.1623470
 C       -1.0198030        4.4151630       -1.8621480
 C       -2.2277620        5.6058130       -0.0498520
 H       -2.3030210        3.7882770        1.2208890
 H       -3.1815160        3.6608190       -0.3108700
 C       -1.3731300        5.8327730       -1.3429740
 H       -3.2419200        6.0193630       -0.1475280
 H       -1.7646860        6.1074220        0.8132530
 H       -0.4632520        6.4055930       -1.1092000
 H       -1.9197150        6.4075960       -2.1046960
 H       -1.8017130        4.0595820       -2.5404360
 H       -0.0692010        4.3796380       -2.4020330
 C        3.4106360        2.5997220       -0.1320470
 C        2.6593420        1.6682770        2.0290700
 C        4.7447890        2.2945920        0.1854140
 C        5.0655540        1.5916650        1.3689600
 H        5.5361510        2.5699430       -0.5060420
 C        4.0298250        1.3144350        2.2644750
 H        4.2838730        0.8469660        3.2124080
 C       -2.1522860        1.3554860       -1.3974180
 C       -2.3796880        1.3259200       -2.8352590
 C       -3.1734210        0.7977460       -0.5624400
 C       -3.5995020        0.7601840       -3.3153350
 C       -4.5907270        0.2164910       -2.4832470
 H       -3.7512090        0.7076480       -4.3908120
 C       -4.3547420        0.2329160       -1.0968400
 H       -5.0937840       -0.1914610       -0.4202470
 C        3.2426530        3.4136390       -1.3954350
 F        3.1150820        4.8242420       -1.0896780
 F        2.1216030        3.1220370       -2.1950030
 F        4.3477720        3.3430270       -2.2677770
 N        1.7532820        1.4552840        3.0706340
 C        2.0149380        0.4406660        4.1074260
 C        0.6424610        2.3701910        3.3727200
 H        1.0549870        0.0932980        4.5085880
 H        2.6238840        0.8350260        4.9444070
 H        2.5100740       -0.4369590        3.6785770
 H        0.8791840        3.3871120        3.0368630
 H        0.5153660        2.4188740        4.4646230
 H       -0.3069920        2.0429610        2.9350190
 C        6.5083600        1.2176520        1.6819340
 C        7.3770610        2.4136340        2.1687480
 H        6.5267170        0.4291980        2.4506500
 H        6.9753430        0.7878840        0.7798930
 C        8.8444970        2.0157040        2.4555280
 H        7.3583530        3.2128250        1.4091030
 H        6.9261210        2.8411080        3.0806400
 C        9.7144360        3.1975870        2.9380740
 H        9.2895960        1.5847940        1.5413520
 H        8.8637310        1.2146020        3.2154780
 H       10.7499790        2.8754040        3.1306710
 H        9.3194280        3.6300500        3.8713410
 H        9.7489050        4.0016100        2.1855750
 N       -1.4921120        1.8675650       -3.7935070
 C       -0.0713710        1.4706190       -3.8806900
 C       -2.0266360        2.3228800       -5.0887410
 H        0.5359490        2.3153440       -4.2325680
 H        0.0564230        0.6334790       -4.5942890
 H        0.3205960        1.1495070       -2.9220030
 H       -1.3183990        3.0477350       -5.5167720
 H       -2.9925930        2.8286230       -4.9608050
 H       -2.1492310        1.5074970       -5.8301070
 C       -3.1926940        0.7785240        0.9550410
 F       -4.2978610        1.5611710        1.4506770
 F       -2.0756750        1.2725500        1.6326170
 F       -3.4234740       -0.5221050        1.4644630
 C       -5.8740580       -0.3701720       -3.0540490
 C       -7.0643620        0.6338300       -3.0565330
 H       -5.6996910       -0.7144720       -4.0859120
 H       -6.1655120       -1.2583280       -2.4699370
 C       -8.3661260        0.0222970       -3.6273250
 H       -7.2458540        0.9854140       -2.0270430
 H       -6.7867290        1.5249040       -3.6452040
 C       -9.5554510        1.0079710       -3.6259300
 H       -8.6350190       -0.8731650       -3.0396870
 H       -8.1837480       -0.3282270       -4.6586600
 H      -10.4619990        0.5349890       -4.0351360
 H       -9.3384790        1.8989080       -4.2367070
 H       -9.7890330        1.3506690       -2.6053580
