67
Mol_000220_2D_DFT last geometry from G09 out file
 Ru        0.0382880       -0.0701900        0.1738060
 C       -0.7737640       -0.6560920       -1.3436310
 Cl       -1.6785490       -0.1149830        1.8755450
 Cl        2.3123410       -0.4651120       -0.5273920
 H       -1.0294260       -0.0838160       -2.2416510
 H       -0.9564580       -1.7500290       -1.3901450
 C       -0.0012800        1.8465790       -0.1066410
 N        0.9810920        2.6683200        0.4366640
 N       -0.8779750        2.6633510       -0.8098870
 C        0.8782860        4.0960250       -0.0258460
 C        1.8135780        2.3171100        1.5672450
 C       -0.5301620        4.1292720       -0.6966110
 H        0.8765180        4.7336630        0.8704290
 H       -0.4504280        4.5360290       -1.7123620
 C        1.2059550        1.9885340        2.8055640
 C        3.2257720        2.3497410        1.4763890
 C        1.9993980        1.7000680        3.9293680
 C        3.4119990        1.7530090        3.8461890
 H        1.5327840        1.4401360        4.8787040
 C        4.0159840        2.0767540        2.6052340
 H        5.1004890        2.0895420        2.5239510
 C       -1.9911270        2.2564190       -1.6323990
 C       -1.9823330        2.5579230       -3.0171950
 C       -3.1131160        1.6008130       -1.0711510
 C       -3.0794140        2.2166230       -3.8250760
 C       -4.2062130        1.5608120       -3.2674790
 H       -3.0734530        2.4411810       -4.8910770
 C       -4.2061990        1.2517710       -1.8839480
 H       -5.0631510        0.7442440       -1.4465620
 H       -1.1136470        3.0386060       -3.4659510
 H       -3.1183200        1.3503690       -0.0138390
 C        2.0721010        4.5750620       -0.9202900
 C        1.9415640        6.0884260       -1.2384210
 C        2.3002210        3.7360950       -2.2005360
 H        2.9717550        4.4720460       -0.2929760
 H        1.8319900        6.6901780       -0.3223360
 H        1.0843400        6.3069290       -1.8931270
 H        2.8450740        6.4400060       -1.7583590
 H        3.2283920        4.0575600       -2.6968280
 H        1.4864440        3.8621930       -2.9309250
 H        2.3944390        2.6656600       -1.9754840
 C       -5.3463450        1.2221670       -4.1734060
 O       -6.3831010        0.5776490       -3.4940260
 O       -5.3915030        1.4765000       -5.3998750
 C       -7.5631690        0.1951550       -4.3001320
 H       -8.2430940       -0.2821510       -3.5863910
 H       -8.0249850        1.0847230       -4.7500800
 H       -7.2730330       -0.5048180       -5.0956340
 C       -1.5611450        5.0263960        0.0824130
 C       -1.9683000        4.4762600        1.4709940
 C       -2.8059490        5.4212350       -0.7541850
 H       -0.9982640        5.9633910        0.2520990
 H       -2.6127980        5.2053640        1.9842950
 H       -1.1010930        4.2945290        2.1206540
 H       -2.5289330        3.5364400        1.3887250
 H       -2.5246580        5.8064900       -1.7468200
 H       -3.3608060        6.2188880       -0.2368540
 H       -3.4961380        4.5818730       -0.9002640
 H        0.1224770        1.9491900        2.8868810
 H        3.7061430        2.5276640        0.5186100
 C        4.2059210        1.4526170        5.0771120
 O        5.5833210        1.5269700        4.8454230
 O        3.7213110        1.1677470        6.1965740
 C        6.4606100        1.2281930        5.9980340
 H        7.4782470        1.3306340        5.6059370
 H        6.2792330        1.9411860        6.8141460
 H        6.2803610        0.2074800        6.3622030
