91
M00000259_2D_DFT last geometry from G09 out file
 Ru       -0.3518410        0.1283160        0.0741490
 C       -2.0458120       -0.4336950       -0.2629690
 Cl       -0.4205200        0.0727530        2.4769500
 Cl        0.6493060       -0.6072430       -1.9940370
 H       -2.9091260        0.1345680       -0.6116600
 H       -2.1971340       -1.5221290       -0.1002530
 C       -0.3492610        2.0211130       -0.3157270
 N        0.8058300        2.7935780       -0.0709960
 N       -1.2926040        2.8541450       -0.9303370
 C        0.6896430        4.1656630       -0.6220300
 C        1.8466220        2.5076690        0.9372940
 C       -0.7585810        4.2172690       -1.1926890
 H        0.8503870        4.9099460        0.1677450
 H       -0.7567070        4.4166800       -2.2712650
 C        1.6107150        2.9533540        2.2787950
 C        3.0835750        1.8853700        0.5818550
 C        2.6129040        2.7485910        3.2476700
 C        3.8439150        2.1299020        2.9394520
 H        2.4115560        3.0748830        4.2678630
 C        4.0464330        1.7168610        1.6094000
 H        4.9973560        1.2531140        1.3529400
 C       -2.5674450        2.4731210       -1.5425730
 C       -2.6008980        2.2021780       -2.9460700
 C       -3.7580630        2.4238960       -0.7555280
 C       -3.8432540        1.8927960       -3.5412960
 C       -5.0448230        1.8369340       -2.7996070
 H       -3.8578050        1.6815960       -4.6106480
 C       -4.9682430        2.0963130       -1.4158090
 H       -5.8807840        2.0359930       -0.8226450
 C       -1.3631940        2.2242340       -3.8300030
 H       -1.5220460        1.5969500       -4.7166170
 H       -0.4728960        1.8434680       -3.3216090
 H       -1.1430190        3.2398470       -4.2005440
 C       -3.7850900        2.6187760        0.7616930
 C       -4.8325630        3.6377070        1.2919630
 H       -3.9980080        1.6414750        1.2295430
 H       -2.7956450        2.9079980        1.1258920
 C       -4.7665920        3.8017530        2.8298200
 H       -4.6756600        4.6159830        0.8126970
 H       -5.8496780        3.3149420        1.0166370
 C       -5.8180690        4.7896380        3.3817110
 H       -3.7582940        4.1465590        3.1172820
 H       -4.9042840        2.8166010        3.3096520
 H       -5.7383600        4.8823010        4.4762700
 H       -6.8423280        4.4564590        3.1486270
 H       -5.6868480        5.7948900        2.9503010
 C        1.7349490        4.5256910       -1.7188840
 F        3.0295920        4.6577450       -1.1925800
 F        1.7901800        3.5999840       -2.7783660
 F        1.4200420        5.7769910       -2.3061070
 C       -6.3897440        1.4979780       -3.4562840
 C       -6.3999300        0.0711880       -4.0730330
 C       -6.8108770        2.5685680       -4.5020880
 H       -7.1525950        1.5096420       -2.6595360
 H       -5.6825920       -0.0191730       -4.9022420
 H       -7.3995030       -0.1666230       -4.4685480
 H       -6.1420900       -0.6893200       -3.3206130
 H       -7.8121340        2.3413010       -4.8995820
 H       -6.1132320        2.6019110       -5.3522250
 H       -6.8424620        3.5722390       -4.0522610
 C       -1.5841470        5.3926200       -0.5941400
 F       -2.8320520        5.5390370       -1.2242270
 F       -1.8218930        5.2906040        0.7907900
 F       -0.8985790        6.6162770       -0.7846080
 C        0.3305480        3.6429940        2.7205520
 H       -0.5626880        3.1747790        2.2994910
 H        0.3193420        4.7107430        2.4492370
 H        0.2360500        3.5933220        3.8123110
 C        3.4694720        1.4707280       -0.8405180
 C        4.1921570        0.1034510       -0.9865850
 H        2.5885260        1.4578560       -1.4871360
 H        4.1413430        2.2488840       -1.2415880
 C        4.5997460       -0.1875760       -2.4513980
 H        5.1012490        0.0738670       -0.3650780
 H        3.5325480       -0.7002260       -0.6255950
 C        5.3081130       -1.5494770       -2.6235330
 H        5.2658190        0.6176200       -2.8112750
 H        3.7026490       -0.1627370       -3.0902240
 H        5.5883990       -1.7208850       -3.6750360
 H        4.6520060       -2.3781640       -2.3133490
 H        6.2281990       -1.6044730       -2.0188170
 C        4.9255530        1.8974380        4.0021510
 C        4.4512720        0.8988040        5.0957860
 C        5.4332030        3.2252380        4.6300390
 H        5.7865440        1.4319920        3.4932950
 H        3.6066850        1.3022790        5.6740080
 H        5.2701450        0.6850890        5.8003570
 H        4.1262900       -0.0524960        4.6489790
 H        4.6384310        3.7408170        5.1896630
 H        5.8030850        3.9148650        3.8562560
 H        6.2585100        3.0251870        5.3309510
