91
M00000261_2D_DFT last geometry from G09 out file
 Ru        0.2455150        0.0635190       -0.3905420
 C       -1.2528900       -0.7402000       -1.0199830
 Cl        0.0230690       -0.4605740        1.9539000
 Cl        1.3993860        0.0214180       -2.5463000
 H       -2.1704910       -0.3121040       -1.4248290
 H       -1.1754940       -1.8499480       -1.0343980
 C       -0.0556370        1.9974440       -0.3218280
 N        0.9321370        2.8369320        0.2139620
 N       -1.0623000        2.7835790       -0.8637880
 C        0.7061220        4.3012840       -0.1700060
 C        1.8405810        2.4712690        1.3288500
 C       -0.7208420        4.2808070       -0.8628610
 H        0.6557900        4.8794480        0.7617640
 H       -0.5868070        4.5628290       -1.9137980
 C        1.4191770        2.7817960        2.6648330
 C        3.1276140        1.8664720        1.1234610
 C        2.3053250        2.5811130        3.7409680
 C        3.5956190        2.0540160        3.5444820
 H        1.9844890        2.8190780        4.7543130
 C        3.9743240        1.6838830        2.2417430
 H        4.9569550        1.2484880        2.0926410
 C       -2.2221470        2.2611950       -1.5862760
 C       -2.2282520        2.2992540       -3.0183300
 C       -3.3631800        1.7559570       -0.8718300
 C       -3.3980230        1.9145060       -3.7070890
 C       -4.5538250        1.4897270       -3.0202840
 H       -3.4168730        1.9415980       -4.7956550
 C       -4.5127620        1.4004160       -1.6137870
 H       -5.3958060        1.0470620       -1.0902570
 C       -1.0302490        2.7164160       -3.8529310
 H       -1.0976800        2.2689850       -4.8529820
 H       -0.0878450        2.3858380       -3.4108180
 H       -0.9905190        3.8084770       -3.9956440
 C       -3.4303220        1.5925810        0.6509240
 C       -4.0190390        0.2552900        1.1700880
 H       -4.0578740        2.4042590        1.0564910
 H       -2.4350700        1.7073860        1.0862800
 H       -4.0005560        0.2589940        2.2703650
 H       -3.4259400       -0.6056450        0.8378430
 H       -5.0616920        0.1002560        0.8589150
 C        1.9078690        4.9369610       -1.0334710
 C        3.1567550        5.1237690       -0.1159210
 C        2.2665150        4.0880210       -2.2850590
 C        1.5801190        6.3678570       -1.5621600
 H        3.9346790        5.6758870       -0.6639950
 H        3.5953860        4.1835350        0.2169280
 H        2.9065070        5.7132630        0.7801200
 H        3.2219730        4.4381100       -2.7032130
 H        1.5133910        4.2003800       -3.0757060
 H        2.3659820        3.0252390       -2.0685670
 H        1.4253640        7.0943010       -0.7553720
 H        0.7111680        6.3900100       -2.2295670
 H        2.4418330        6.7152780       -2.1512170
 C       -5.7659190        1.1314390       -3.8204100
 O       -6.8230380        0.7009670       -3.0117620
 O       -5.8532840        1.2006160       -5.0681280
 C       -8.0709840        0.3193050       -3.7082840
 H       -8.7549240        0.0184170       -2.9073290
 H       -8.4738950        1.1732590       -4.2700340
 H       -7.8846640       -0.5136400       -4.3999990
 C       -1.8601860        5.2853660       -0.3193640
 C       -2.3649010        4.9935970        1.1186150
 C       -1.3456780        6.7588110       -0.2947600
 C       -3.0779910        5.2929330       -1.2999640
 H       -1.6313260        5.2973070        1.8736530
 H       -2.6069190        3.9447500        1.2790010
 H       -3.2774230        5.5793430        1.3051680
 H       -2.1462340        7.3918170        0.1155570
 H       -1.1100400        7.1425060       -1.2941410
 H       -0.4697770        6.8925130        0.3501720
 H       -3.6860950        4.3876910       -1.2393940
 H       -2.7586870        5.4208460       -2.3448910
 H       -3.7320160        6.1427460       -1.0538810
 C        0.0355570        3.2865000        3.0219710
 H        0.0154790        4.3830190        3.1176330
 H       -0.2682050        2.8744000        3.9931510
 H       -0.7134430        2.9887390        2.2900480
 C        3.6903300        1.4277640       -0.2293370
 C        4.3973590        0.0478210       -0.2406640
 H        4.4178850        2.1831310       -0.5734630
 H        2.9025490        1.4017380       -0.9813590
 H        3.7496210       -0.7409000        0.1670950
 H        5.3358190        0.0458330        0.3316690
 H        4.6401660       -0.2228570       -1.2783580
 C        4.4891980        1.8886800        4.7314380
 O        5.7199620        1.3170760        4.3909920
 O        4.1987670        2.2168360        5.9054530
 C        6.6724010        1.0985380        5.5004720
 H        7.5522530        0.6498260        5.0266360
 H        6.9281290        2.0525240        5.9820920
 H        6.2402330        0.4199320        6.2487060
