61
M00000264_2D_DFT last geometry from G09 out file
 Ru        0.0779940        0.4175690        0.5049470
 C       -1.3724160       -0.4267930       -0.1923940
 Cl       -0.5658830        0.5447990        2.8189230
 Cl        1.6770660       -0.4092200       -1.0933750
 H       -2.1473020       -0.0605400       -0.8668680
 H       -1.4330550       -1.5001900        0.0860490
 C       -0.1135110        2.2911800        0.0108150
 N        0.8612170        3.2300990        0.3676680
 N       -1.1174120        2.9879040       -0.6601050
 C        0.4694000        4.6257390        0.0438400
 C        2.0232840        2.9268610        1.1870180
 C       -0.7824720        4.4262870       -0.8623270
 H        0.1951730        5.1457970        0.9706220
 H       -0.5264910        4.5895000       -1.9171890
 C        1.9555290        3.1692680        2.5925550
 C        3.2248350        2.4297340        0.5847400
 C        3.0781260        2.8411380        3.3883710
 C        4.2173810        2.2993500        2.7870970
 H        3.0579040        2.9967890        4.4658300
 C        4.3218180        2.0933680        1.4093050
 H        5.2341320        1.6964020        0.9764000
 C       -2.2514580        2.4107720       -1.3501520
 C       -2.1406650        2.1347500       -2.7454780
 C       -3.4628230        2.1379190       -0.6430070
 C       -3.2762650        1.6288650       -3.4239490
 C       -4.4588660        1.3930260       -2.7151700
 H       -3.2348050        1.4129270       -4.4905770
 C       -4.5748580        1.6152390       -1.3391390
 H       -5.5002740        1.3893850       -0.8175660
 C       -0.8580860        2.3495220       -3.5321240
 H        0.0421190        2.2026830       -2.9273220
 H       -0.8170720        3.3647430       -3.9609660
 H       -0.8080160        1.6486270       -4.3755610
 C       -3.5962870        2.3916200        0.8367310
 O       -4.5306120        1.5280460        1.4009860
 O       -2.9761220        3.2513760        1.4944660
 C       -4.7319390        1.6398170        2.8677560
 H       -5.4837430        0.8780780        3.0987090
 H       -3.7873350        1.4357610        3.3869860
 H       -5.0929310        2.6443520        3.1267550
 C        1.5369080        5.5662520       -0.6084400
 F        2.8286920        5.3934190       -0.0901570
 F        1.6244370        5.5042580       -2.0062230
 F        1.1779250        6.9066150       -0.2965600
 F       -5.5706190        0.8929150       -3.4096140
 C       -1.8917870        5.4915330       -0.5741240
 F       -3.1657740        5.1178670       -1.0266550
 F       -2.0128480        5.8878280        0.7641270
 F       -1.5572050        6.6651770       -1.3052090
 C        0.7528580        3.7978060        3.2750930
 H        0.6865290        3.4611930        4.3166310
 H       -0.1950810        3.5408730        2.7951020
 H        0.8519670        4.8965940        3.2961510
 C        3.4022300        2.3386930       -0.9109530
 O        4.5913370        1.6980660       -1.2366710
 O        2.6347660        2.8149120       -1.7743470
 C        4.8698250        1.5152600       -2.6783160
 H        5.8359250        1.0006150       -2.7081370
 H        4.0816430        0.9019620       -3.1334120
 H        4.9239930        2.4887300       -3.1845440
 F        5.3113010        1.9642840        3.5993550
