61
M00000076_2D_DFT last geometry from G09 out file
Ru        0.3076800        0.1904280        0.5242790
C       -0.7768740       -0.7650170       -0.5749330
Cl       -0.9709340        0.3991780        2.5598530
Cl        2.3069850       -0.2786290       -0.8101370
H       -1.2764340       -0.4556000       -1.4968610
H       -0.8501110       -1.8440100       -0.3160840
C        0.0245920        2.0468400        0.0206040
N        0.9050950        3.0312830        0.4609400
N       -0.9547750        2.6745360       -0.7302160
C        0.6682750        4.3542140       -0.2176140
C        1.7556960        2.9021610        1.6381240
C       -0.7849950        4.1828280       -0.7844290
H        0.6928480        5.1349030        0.5497670
H       -0.8023210        4.4742340       -1.8413580
C        1.4221710        3.6180660        2.8141050
C        2.9095200        2.0864130        1.6308290
C        2.2307640        3.5185810        3.9623700
C        3.3746660        2.6905150        3.9596430
H        1.9546420        4.0691900        4.8633170
C        3.7038890        1.9731630        2.7919200
H        4.5835940        1.3277840        2.7716650
C       -2.0165980        2.0177070       -1.4599200
C       -2.0111600        2.0301260       -2.8740170
C       -3.0811160        1.3891950       -0.7694950
C       -3.0688020        1.4332120       -3.5924500
C       -4.1343080        0.8124540       -2.9048890
H       -3.0527700        1.4441090       -4.6835730
C       -4.1310820        0.7875680       -1.4923830
H       -4.9437760        0.3006190       -0.9510150
H       -1.1793550        2.4844130       -3.4110560
H       -3.0725060        1.3548830        0.3176160
C        1.7871530        4.7358410       -1.2900320
C        1.9368500        3.6615390       -2.4025980
C        1.4324940        6.1058740       -1.9456020
C        3.1615020        4.9172270       -0.5776080
H        1.0335050        3.5776290       -3.0235480
H        2.1618090        2.6712330       -1.9901840
H        2.7632160        3.9389740       -3.0741940
H        2.2297090        6.3851790       -2.6499800
H        1.3558480        6.9091670       -1.1984760
H        0.4943770        6.0787620       -2.5164290
H        3.5645820        3.9697500       -0.2085780
H        3.0931640        5.6132180        0.2728330
H        3.8924610        5.3325090       -1.2874190
H       -4.9508070        0.3492690       -3.4609740
C       -1.9450890        5.0283460       -0.0767590
C       -2.2477310        4.5491740        1.3692360
C       -1.5400100        6.5356920       -0.0290440
C       -3.2547130        4.9649250       -0.9252100
H       -1.4155950        4.7558250        2.0536120
H       -2.4599910        3.4756330        1.4183310
H       -3.1266460        5.0836440        1.7596460
H       -2.3655330        7.1118570        0.4139370
H       -1.3564100        6.9433210       -1.0327800
H       -0.6509560        6.7262860        0.5861950
H       -3.7287220        3.9802810       -0.9036060
H       -3.0681450        5.2300730       -1.9774830
H       -3.9825710        5.6883370       -0.5281210
H        0.5221150        4.2268350        2.8482920
H        3.1859660        1.5446080        0.7310050
H        3.9933690        2.6036450        4.8541350
