79
M00000079_2D_DFT last geometry from G09 out file
Ru        1.1528180       -0.0191230        0.1090610
C        0.1999290       -0.7573240       -1.2498480
Cl        0.0855830       -0.8970290        2.0716370
Cl        3.1884050        0.4358840       -1.1136230
H       -0.4880310       -0.2679160       -1.9454530
H        0.3918400       -1.8362390       -1.4278850
C        0.4666130        1.7927520        0.1466980
N        1.1022350        2.8047330        0.8633620
N       -0.5743810        2.3941750       -0.5619220
C        2.0698140        2.5704190        1.9123120
C        0.7395290        4.2023050        0.3068320
C        3.4461900        2.5306000        1.5879340
C        1.7032670        2.3898940        3.2833600
C        4.4315970        2.3068600        2.5642110
C        4.0822470        2.1055320        3.9189900
H        5.4789380        2.2712540        2.2601620
C        2.7110340        2.1599140        4.2505910
H        2.4152710        2.0132180        5.2886350
C       -0.6720130        3.8528200       -0.2262920
H       -1.4421900        3.9866950        0.5487070
H       -0.9441660        4.4360770       -1.1066760
C       -1.7664000        1.7405470       -1.0365210
C       -2.2400630        1.8611490       -2.3775900
C       -2.5477750        1.0098680       -0.1105360
C       -3.4755950        1.2713730       -2.7361410
C       -4.2571500        0.5420370       -1.8121340
H       -3.8237990        1.3660470       -3.7629310
C       -3.7613700        0.4134700       -0.4924780
H       -4.3263890       -0.1551650        0.2479360
C       -1.4724710        2.5867960       -3.4583060
F       -1.9335450        2.2761230       -4.7583710
F       -0.0869560        2.3147630       -3.4686590
F       -1.5842230        4.0147690       -3.3617540
H       -2.1822480        0.8981340        0.9074280
C        0.7274450        5.2877550        1.4241970
C       -0.1686190        6.5370540        1.1956090
H        1.7626060        5.6214880        1.5969490
H        0.3873580        4.8306030        2.3583750
C       -0.0548480        7.5348530        2.3710940
H       -1.2225450        6.2300600        1.0987540
H        0.0941470        7.0524920        0.2629100
H        0.9755190        7.9088970        2.4810350
H       -0.7106630        8.4047700        2.2113390
H       -0.3441150        7.0659800        3.3246020
C        1.7635030        4.4971740       -0.8493570
C        1.5880030        5.7861600       -1.6926680
H        1.7535530        3.6357390       -1.5314140
H        2.7663690        4.5254930       -0.3980090
C        2.5374350        5.7918810       -2.9137400
H        1.7953830        6.6772720       -1.0807650
H        0.5525190        5.8807610       -2.0559350
H        3.5917390        5.7141170       -2.6035210
H        2.3234200        4.9476130       -3.5870230
H        2.4263390        6.7218350       -3.4930160
C       -5.5949200       -0.0576140       -2.2201430
C       -6.7982530        0.9016470       -1.9755510
H       -5.7698020       -0.9895840       -1.6591150
H       -5.5744850       -0.3298940       -3.2876040
C       -8.1501740        0.2801440       -2.3873870
H       -6.6350500        1.8372600       -2.5361260
H       -6.8288360        1.1794910       -0.9088090
H       -8.3589540       -0.6396220       -1.8181480
H       -8.9770350        0.9830560       -2.2020560
H       -8.1639070        0.0223180       -3.4583500
H        3.7346250        2.6299420        0.5470950
C        0.3044060        2.4923700        3.8589020
F       -0.7663910        2.4504610        2.9497120
F        0.1370790        3.7379200        4.5679710
F        0.0411380        1.4976400        4.8252730
C        5.1311060        1.7962000        4.9759820
C        5.4075090        0.2697740        5.1280370
H        4.8103600        2.1940720        5.9522460
H        6.0768660        2.3011350        4.7215120
C        6.4733830       -0.0394600        6.2009380
H        5.7308470       -0.1378220        4.1559320
H        4.4659720       -0.2446370        5.3815700
H        6.1624380        0.3248690        7.1931430
H        6.6424300       -1.1243300        6.2813040
H        7.4386590        0.4324490        5.9569230
