83
Mol_000065_2D_DFT last geometry from G09 out file
 Ru       -0.0740020       -0.1833250        0.3848400
 C        1.7291130       -0.4015190        0.4204490
 Cl       -0.5505900       -1.0940340       -1.7881380
 Cl       -0.5572310       -0.1324670        2.7560900
 H        2.5098670        0.3488330        0.2745980
 H        2.0692420       -1.4416700        0.6119320
 C       -0.3200860        1.7261130        0.1284910
 N        0.5581040        2.7829570        0.3509880
 N       -1.5927280        2.2728090       -0.1329340
 C       -0.1143260        4.1097930        0.2293390
 C        2.0096190        2.8068410        0.5309490
 C       -1.6243700        3.7680050        0.0936680
 H        0.2668770        4.6497890       -0.6496390
 H        0.0864050        4.7178970        1.1165430
 H       -2.0248480        4.2333880       -0.8115280
 C        2.5661100        2.9634390        1.8431960
 C        2.8534030        2.8055780       -0.6316880
 C        3.9728220        3.0818230        1.9609480
 C        4.8124370        3.0564800        0.8365290
 H        4.4147410        3.1961840        2.9496790
 C        4.2516880        2.9231370       -0.4438580
 H        4.9081310        2.9163650       -1.3131920
 C       -2.7027620        1.6834710       -0.9109150
 C       -2.7533070        1.9496160       -2.3259860
 C       -3.7622230        0.9580240       -0.2744350
 C       -3.8563180        1.4664800       -3.0654180
 C       -4.8891790        0.7381640       -2.4566520
 H       -3.9018310        1.6545220       -4.1373780
 C       -4.8324980        0.4922750       -1.0795630
 H       -5.6379490       -0.0695610       -0.6094010
 C       -1.6872230        2.7399370       -3.1097550
 C       -2.2562250        4.0735550       -3.6826180
 C       -1.0541030        1.8993200       -4.2558590
 H       -0.8721800        2.9972830       -2.4256620
 H       -2.7241180        4.6979690       -2.9068010
 H       -3.0197270        3.8839530       -4.4506390
 H       -1.4514630        4.6606210       -4.1528370
 H       -0.6307910        0.9641760       -3.8719850
 H       -0.2539640        2.4752340       -4.7469950
 H       -1.7939860        1.6438560       -5.0275740
 C       -3.8452100        0.6484730        1.2286540
 C       -3.9244460       -0.8817660        1.5025330
 C       -5.0570840        1.3670560        1.8906340
 H       -2.9385180        1.0183970        1.7147060
 H       -3.1111070       -1.4280810        1.0071650
 H       -4.8767610       -1.3088310        1.1547170
 H       -3.8431800       -1.0705420        2.5824700
 H       -6.0135620        0.9839370        1.5048240
 H       -5.0316630        2.4501440        1.7174490
 H       -5.0435430        1.1956050        2.9780330
 C       -2.4746150        4.2662600        1.2682160
 C       -3.4078970        5.3055650        1.0348970
 C       -2.3073580        3.7924760        2.5927230
 C       -4.1475690        5.8707130        2.0961070
 H       -3.5609650        5.6791600        0.0198670
 C       -3.9635990        5.3993070        3.4127370
 H       -4.8626420        6.6702890        1.8945620
 C       -3.0437620        4.3546190        3.6536330
 H       -4.5328470        5.8325860        4.2369500
 H       -2.9061710        3.9719650        4.6665330
 H       -1.6228850        2.9719890        2.7992240
 H       -5.7270140        0.3679490       -3.0498140
 C        1.7238500        3.0413040        3.1268080
 C        1.7369830        4.4815200        3.7220560
 C        2.1767590        2.0145560        4.2023320
 H        0.6906170        2.7880410        2.8704380
 H        1.4105960        5.2370820        2.9924560
 H        2.7444420        4.7642560        4.0620070
 H        1.0622440        4.5376720        4.5900100
 H        3.1850530        2.2325340        4.5842900
 H        2.1651870        0.9927450        3.8043200
 H        1.4844920        2.0439580        5.0571380
 C        2.3244730        2.7114870       -2.0734320
 C        2.9232030        1.5101270       -2.8593340
 C        2.5681690        4.0421040       -2.8464680
 H        1.2441050        2.5460110       -2.0317780
 H        2.7050920        0.5570690       -2.3610090
 H        4.0128940        1.5967080       -2.9786530
 H        2.4812690        1.4647370       -3.8656610
 H        2.1110540        3.9904440       -3.8465570
 H        3.6418450        4.2385310       -2.9813050
 H        2.1384310        4.9072010       -2.3192730
 H        5.8934120        3.1472300        0.9560100
