65
Mol_000068_2D_DFT last geometry from G09 out file
 Ru       -0.1376520       -0.0639820        0.0613670
 C        1.3005640       -0.5755190        1.0451200
 Cl        0.6919140       -0.4571810       -2.1811910
 Cl       -1.8285330       -0.2585060        1.7632970
 H        2.0545820        0.0396860        1.5416870
 H        1.3960170       -1.6754170        1.1742460
 C       -0.0032910        1.8692870       -0.0218610
 N        1.0337720        2.7408580        0.3159000
 N       -1.0144210        2.6406080       -0.6099240
 C        0.8340510        4.0607830       -0.3745120
 C        2.1919730        2.5086010        1.1495560
 C        1.3301710        5.3776510        0.2382220
 C       -0.6904210        4.1015840       -0.5123980
 H        1.2811790        3.9688560       -1.3811980
 C        0.9426840        6.5024080       -0.7704930
 H        2.4175250        5.3756580        0.3949030
 H        0.8578510        5.5526760        1.2175140
 C       -0.5540930        6.4809130       -1.1977390
 H        1.5757110        6.4021180       -1.6688290
 H        1.1799460        7.4838920       -0.3298340
 C       -1.0662990        5.0758570       -1.6392090
 H       -1.1745460        6.8346500       -0.3564740
 H       -0.7059680        7.1985380       -2.0197350
 H       -2.1500790        5.1088220       -1.8127660
 H       -0.5937810        4.7677020       -2.5849710
 H       -1.1279810        4.4804320        0.4280250
 C        1.9911100        2.5766250        2.5517460
 C        3.4987950        2.3093220        0.6099460
 C        3.0701450        2.4520420        3.4450670
 C        4.3723590        2.2760240        2.9290680
 H        2.8979820        2.4967810        4.5212880
 C        4.5702610        2.2067750        1.5371600
 H        5.5819740        2.0574160        1.1597630
 C       -2.2662670        2.1774440       -1.1915650
 C       -2.1917440        1.5820720       -2.4754300
 C       -3.5338880        2.3939130       -0.5624750
 C       -3.3530020        1.1703290       -3.1538910
 C       -4.6107960        1.3855710       -2.5561440
 H       -3.2709300        0.6971930       -4.1332140
 C       -4.6852760        1.9902840       -1.2871960
 H       -5.6670550        2.1383950       -0.8384860
 H        0.9772650        2.7145470        2.9275970
 C        3.7774370        2.1819550       -0.8971930
 C        4.4671320        0.8344870       -1.2536520
 C        4.6122020        3.3795170       -1.4376340
 H        2.8130300        2.1793340       -1.4207920
 H        3.8618040       -0.0191360       -0.9235710
 H        5.4670940        0.7501110       -0.8027770
 H        4.5831380        0.7539320       -2.3448310
 H        4.1296640        4.3454560       -1.2287960
 H        4.7358630        3.2912770       -2.5279440
 H        5.6168130        3.4058810       -0.9896170
 H        5.2246320        2.1878770        3.6050580
 H       -1.2149950        1.4339150       -2.9283750
 C       -3.7096770        3.0337460        0.8273680
 C       -4.6402580        2.2071090        1.7589980
 C       -4.2396970        4.4963080        0.7292680
 H       -2.7248250        3.0550290        1.3136030
 H       -4.3145570        1.1629460        1.8155490
 H       -5.6875910        2.2321340        1.4232750
 H       -4.6121500        2.6281000        2.7761950
 H       -5.2446030        4.5207640        0.2817560
 H       -3.5911650        5.1398070        0.1200180
 H       -4.3112660        4.9407980        1.7342830
 H       -5.5254340        1.0826410       -3.0689260
