83
M00000511_2D_DFT last geometry from G09 out file
 Ru       -0.3326690        0.5144180        0.2655970
 C        1.1057590       -0.1360120       -0.6526090
 Cl       -1.8908190       -1.3910050        0.1036540
 Cl        0.7080900        0.2589950        2.4094500
 H        1.2429010        0.0861010       -1.7254400
 H        1.8204390       -0.8297110       -0.1811180
 C       -0.0442810        2.4923720       -0.0464470
 N        0.9204880        3.4349980        0.2377390
 N       -1.0934580        3.1261950       -0.6959530
 C        0.5497710        4.8529790       -0.2705160
 C        2.0259650        3.1775780        1.1607990
 C       -0.9176690        4.6361890       -0.8457690
 H        0.5013820        5.4850930        0.6203590
 H       -0.9072870        4.8641300       -1.9199800
 C        1.9335600        3.6474810        2.5071250
 C        3.1870020        2.4110670        0.7988050
 C        2.9740610        3.4228500        3.4355420
 C        4.0933520        2.6959390        3.0354510
 H        2.9079220        3.7912210        4.4580520
 C        4.2050950        2.1683160        1.7524670
 H        5.0712040        1.5732110        1.4829740
 C       -2.1564080        2.3592590       -1.3367750
 C       -2.1944130        2.2476180       -2.7667400
 C       -3.2718200        1.8380520       -0.5941250
 C       -3.3472230        1.7391730       -3.4139390
 C       -4.4246280        1.2899730       -2.6498920
 H       -3.3944440        1.6537430       -4.4971560
 C       -4.3996660        1.3047330       -1.2546430
 H       -5.2281790        0.8960840       -0.6837780
 C       -0.9951440        2.4978840       -3.6617760
 C       -1.2070790        3.1957460       -5.0062510
 O        0.1358980        2.0643670       -3.3316070
 H       -1.5262960        2.4643520       -5.7670230
 H       -1.9712030        3.9833800       -4.9583140
 H       -0.2518130        3.6154460       -5.3425750
 C       -3.2589220        1.7317010        0.8977940
 O       -4.5211420        1.8089320        1.4492900
 O       -2.2287350        1.5437930        1.5895640
 C       -4.6340300        1.5234390        2.9044000
 H       -5.7116560        1.5111030        3.0958970
 H       -4.1727170        0.5538360        3.1319240
 H       -4.1399910        2.3157910        3.4819420
 C        1.6024520        5.5779600       -1.2449580
 C        3.0252650        5.5860830       -0.6052160
 C        1.6771750        4.9787390       -2.6751380
 C        1.2200980        7.0841680       -1.3987560
 H        3.0021470        5.9177510        0.4427390
 H        3.6602350        6.2937930       -1.1583690
 H        3.5100760        4.6120360       -0.6618450
 H        2.5167890        5.4435810       -3.2144880
 H        0.7703460        5.2029430       -3.2561450
 H        1.8401360        3.9021700       -2.6670000
 H        1.9920960        7.5735150       -2.0103640
 H        1.1838560        7.6089230       -0.4337520
 H        0.2664730        7.2287330       -1.9153650
 F       -5.5549690        0.7830920       -3.3046830
 C       -2.1279720        5.5003580       -0.2300390
 C       -2.4518880        5.1492980        1.2482700
 C       -1.8320810        7.0302170       -0.2634880
 C       -3.4042060        5.3137690       -1.1151880
 H       -1.7219290        5.5960350        1.9307620
 H       -2.4702010        4.0748000        1.4326020
 H       -3.4396340        5.5557150        1.5124610
 H       -2.6831230        7.5521680        0.1987600
 H       -1.7329610        7.4171680       -1.2862180
 H       -0.9403970        7.3028700        0.3086460
 H       -4.1530750        6.0671540       -0.8301420
 H       -3.8779830        4.3363410       -0.9999470
 H       -3.1812760        5.4661260       -2.1829370
 C        0.7469190        4.3970010        3.1091470
 C       -0.1128280        3.6259630        4.0939980
 O        0.5451010        5.6111940        2.8464220
 H       -0.5383160        2.7369100        3.6070610
 H        0.4974240        3.2429550        4.9262370
 H       -0.9061620        4.2711010        4.4888940
 C        3.4689620        1.8721780       -0.5785870
 O        4.3409420        0.7781860       -0.5193100
 O        3.0705420        2.3364280       -1.6640350
 C        4.7874280        0.2196870       -1.8147340
 H        3.9262400       -0.1103500       -2.4096120
 H        5.3535380        0.9724480       -2.3811070
 H        5.4243270       -0.6283130       -1.5420370
 F        5.1267370        2.4734020        3.9578610
