63
M00000510_2D_DFT last geometry from G09 out file
 Ru       -0.4165730        0.0559070        0.7005780
 C       -1.8804670       -0.6868460       -0.0769780
 Cl       -1.2643680        0.6425760        2.8907920
 Cl        1.2682450       -0.9417930       -0.7125820
 H       -2.5335950       -0.2807010       -0.8530720
 H       -2.0996340       -1.7233280        0.2597340
 C       -0.3566380        1.8637470       -0.0135050
 N        0.7822430        2.6417030        0.1575620
 N       -1.2914660        2.6403210       -0.6848730
 C        0.6647530        4.0206460       -0.4210730
 C        1.9786420        2.2524150        0.8842150
 C        0.8911600        5.1618530        0.6177800
 C       -0.7574130        3.9999370       -1.0607920
 H        1.4271420        4.1302640       -1.2038050
 C       -0.3329810        5.4610950        1.4565580
 H        1.7599180        4.9194100        1.2427350
 H        1.1719830        6.0636510        0.0423020
 C       -1.5528650        5.4798610        0.8679950
 H       -0.2112350        5.6596530        2.5232920
 C       -1.6688150        5.1796580       -0.6126830
 H       -2.4564110        5.6969150        1.4395440
 H       -2.7049600        4.9749530       -0.9089790
 H       -1.3538530        6.0625490       -1.1999850
 H       -0.6790700        4.0347510       -2.1590400
 C        1.9032710        2.1732260        2.2968680
 C        3.2100490        2.0061840        0.2065370
 C        3.0339020        1.8265560        3.0599760
 C        4.2586210        1.5767670        2.4077310
 H        2.9528470        1.7508230        4.1450560
 C        4.3328510        1.6700680        1.0046950
 H        5.2792290        1.4493570        0.5075650
 C       -2.4948150        2.1900950       -1.3609280
 C       -2.3539470        1.8098920       -2.7207240
 C       -3.7743910        2.1762080       -0.7315910
 C       -3.4660240        1.4116630       -3.4830200
 C       -4.7403580        1.3876630       -2.8755250
 H       -3.3385320        1.1113040       -4.5238810
 C       -4.8780830        1.7583450       -1.5252220
 H       -5.8658830        1.7121920       -1.0656580
 H        0.9529210        2.3686600        2.7873590
 C        3.3712560        2.0370210       -1.3099390
 C        4.2597780        3.1992650       -1.8414740
 H        2.3896510        2.0682890       -1.7979040
 H        3.8249130        1.0841140       -1.6249040
 C        4.4108100        3.1766710       -3.3787170
 H        5.2582060        3.1389400       -1.3785860
 H        3.8393370        4.1699540       -1.5273890
 H        3.4349260        3.2722510       -3.8816730
 H        5.0496980        4.0037130       -3.7262710
 H        4.8671730        2.2338980       -3.7195710
 H        5.1437930        1.3007560        2.9833820
 H       -1.3582360        1.8024590       -3.1660810
 C       -3.9877480        2.5046710        0.7432830
 C       -5.0802840        3.5703870        1.0370620
 H       -3.0431640        2.8192310        1.1970110
 H       -4.2681100        1.5743980        1.2657820
 C       -5.2686850        3.8115520        2.5516210
 H       -6.0448980        3.2580170        0.6056000
 H       -4.8175060        4.5200760        0.5417560
 H       -4.3334800        4.1473100        3.0258520
 H       -6.0373170        4.5782760        2.7373730
 H       -5.5828050        2.8888690        3.0644350
 H       -5.6156040        1.0715820       -3.4457080
