97
Mol_000133_2D_DFT last geometry from G09 out file
 Ru        0.2956070       -0.2836490       -0.2850090
 C       -0.9068080       -1.1283470       -1.3499810
 Cl       -0.6063780       -0.9856160        1.8498010
 Cl        2.0666450       -0.0269300       -1.9410220
 H       -1.7878710       -0.7400380       -1.8637270
 H       -0.6993090       -2.2139540       -1.4798280
 C       -0.2227810        1.5995770       -0.2298640
 N        0.5128810        2.4833930        0.5547840
 N       -1.1802820        2.3283140       -0.9145130
 C        1.5881180        2.0447620        1.4463240
 C        0.3005510        3.9380660        0.0803380
 C        2.8585640        1.7596720        0.8873670
 C        1.3977190        1.9116380        2.8595760
 C        3.9440590        1.3622630        1.6848500
 C        3.7952260        1.2420310        3.0848560
 H        4.8947600        1.1378960        1.2009310
 C        2.5202980        1.5194890        3.6303050
 H        2.3937680        1.4059580        4.7054710
 C       -1.2282970        3.8022170       -0.4153460
 C       -2.2507430        1.7340130       -1.6978300
 C       -3.3634620        1.1917160       -1.0027460
 C       -2.2274730        1.6853520       -3.1226540
 C       -4.4705790        0.6622310       -1.6832830
 C       -4.5065890        0.6583650       -3.1004970
 H       -5.2981260        0.2511600       -1.1045930
 C       -3.3752680        1.1631500       -3.7781670
 H       -3.3778820        1.1477750       -4.8692710
 C       -5.7071390        0.1113460       -3.8842560
 C       -7.0061240        0.9167680       -3.6011990
 C       -5.9210790       -1.4086170       -3.6364910
 H       -5.4796770        0.2333240       -4.9569180
 H       -7.3197640        0.8244400       -2.5506260
 H       -7.8308810        0.5470770       -4.2301390
 H       -6.8652850        1.9864370       -3.8182510
 H       -5.0138640       -1.9817270       -3.8801890
 H       -6.7423670       -1.7875530       -4.2644330
 H       -6.1787660       -1.6166520       -2.5872920
 C        1.3600770        4.1703060       -1.0709220
 C        1.5518400        5.5678050       -1.7198590
 H        2.3238480        3.9012520       -0.6228120
 H        1.1876330        3.4293390       -1.8613280
 H        0.7851770        5.8129110       -2.4629200
 H        2.5204390        5.5761200       -2.2451590
 H        1.5767270        6.3843520       -0.9869800
 C        0.4751490        4.9949930        1.2129540
 C        1.8957520        5.3548350        1.7182250
 H        0.0109790        5.9229570        0.8479010
 H       -0.1145670        4.6799820        2.0764580
 H        2.5474210        5.7486430        0.9292090
 H        2.4076560        4.5074440        2.1837740
 H        1.8014470        6.1431570        2.4828560
 C       -1.5815440        4.8137030       -1.5514500
 C       -3.0506720        4.9695560       -2.0215900
 H       -1.2457930        5.8011270       -1.2031070
 H       -0.9722240        4.5778870       -2.4280530
 H       -3.7261610        5.2968140       -1.2223830
 H       -3.4614230        4.0516840       -2.4516690
 H       -3.0815590        5.7429620       -2.8064250
 C       -2.3099060        3.8461220        0.7331000
 C       -2.7274810        5.1902270        1.3923780
 H       -3.2180720        3.4284890        0.2831200
 H       -2.0117950        3.1432840        1.5204800
 H       -2.8357720        6.0103720        0.6718410
 H       -2.0343090        5.5258490        2.1711230
 H       -3.7082970        5.0524850        1.8752610
 H        2.9876070        1.8142870       -0.1883250
 C        0.0539540        2.1731620        3.5424320
 C       -0.1972240        1.4628730        4.8964250
 H       -0.7432650        1.8738760        2.8536860
 H       -0.0611540        3.2586440        3.7086290
 C       -1.6459310        1.6643290        5.3940930
 H        0.4940140        1.8433850        5.6669250
 H        0.0013270        0.3865990        4.7849800
 H       -1.7981350        1.1726260        6.3677250
 H       -1.8874960        2.7331360        5.5191110
 H       -2.3704490        1.2324930        4.6861270
 C        4.9481530        0.7966790        3.9939430
 C        6.1602370        1.7670990        3.9291950
 C        5.3802470       -0.6674770        3.6969770
 H        4.5735560        0.8171470        5.0315280
 H        5.8593060        2.7959100        4.1791530
 H        6.6144480        1.7827690        2.9272000
 H        6.9384560        1.4563240        4.6437170
 H        4.5261410       -1.3558910        3.7807930
 H        6.1539800       -0.9921510        4.4103190
 H        5.7938320       -0.7686550        2.6824980
 H       -3.3365810        1.1555410        0.0845100
 C       -1.0489580        2.1559260       -3.9722430
 C       -0.4648070        1.0828920       -4.9361940
 H       -0.2383740        2.4980980       -3.3221900
 H       -1.3663370        3.0234160       -4.5790090
 C        0.7171360        1.6271170       -5.7676960
 H       -1.2489610        0.7188630       -5.6195740
 H       -0.1224050        0.2191750       -4.3486020
 H        1.1061780        0.8514360       -6.4454480
 H        0.4172530        2.4915500       -6.3831750
 H        1.5467820        1.9411190       -5.1162140
