69
Mol_000013_2D_DFT last geometry from G09 out file
Ru        0.3399790       -0.0590020       -0.3208890
C       -0.6885270       -0.6576210       -1.6941920
Cl       -1.1193610       -0.2075490        1.6079110
Cl        2.4898780       -0.3759300       -1.3726960
H       -1.1242280       -0.0791790       -2.5154070
H       -0.8330160       -1.7581020       -1.7362700
C        0.2071240        1.8631680       -0.5460500
N        1.1597350        2.7133070       -0.0037020
N       -0.7117890        2.6507610       -1.2221060
C        0.9510400        4.1544200       -0.3542590
C        2.2638170        2.3197200        0.8385750
C        0.8494270        5.0797520        0.8974580
C       -0.3459740        4.1123490       -1.2227720
H        1.8034160        4.4921320       -0.9634610
C       -0.4990620        4.9833080        1.5809000
H        1.6714160        4.8509100        1.5876070
H        1.0201140        6.1144980        0.5466970
C       -1.6205220        4.9626860        0.8201540
H       -0.5432550        4.9169960        2.6696790
C       -1.4849520        5.0323870       -0.6873360
H       -2.6141520        4.8792670        1.2644580
H       -2.4274590        4.7868730       -1.1920070
H       -1.2293690        6.0631200       -0.9957940
H       -0.1193420        4.4110010       -2.2580130
C        2.0369870        1.6806720        2.0754870
C        3.5930000        2.6136060        0.4561280
C        3.1255760        1.3090130        2.8935290
C        4.4652480        1.5854690        2.5294800
H        2.9013200        0.8019880        3.8292120
C        4.6639060        2.2571660        1.2906530
H        5.6737460        2.4858990        0.9506970
C       -1.9517620        2.2458040       -1.8344920
C       -2.1592770        2.4543730       -3.2156240
C       -3.0032830        1.6997150       -1.0624640
C       -3.3916180        2.1172780       -3.8141000
C       -4.4555440        1.5544260       -3.0642180
H       -3.5030280        2.2907030       -4.8820820
C       -4.2207080        1.3546200       -1.6759440
H       -4.9991490        0.9232500       -1.0470450
H        1.0197740        1.4733360        2.4025060
H        3.7938180        3.0801260       -0.5082410
C        5.6839220        1.1787850        3.4022700
C        6.5091530        2.4518340        3.7778940
C        5.2634760        0.4732110        4.7223370
C        6.5872280        0.1916640        2.5934130
H        5.8967950        3.1611050        4.3551280
H        6.8845140        2.9774240        2.8888760
H        7.3791500        2.1734590        4.3922560
H        4.7104360       -0.4580970        4.5314410
H        4.6405450        1.1223390        5.3557240
H        6.1607640        0.2100960        5.3014920
H        6.0256760       -0.7112470        2.3117790
H        7.4530030       -0.1164520        3.1997170
H        6.9701830        0.6470380        1.6697210
H       -1.3559890        2.8610900       -3.8317930
H       -2.8555840        1.5251160        0.0009460
C       -5.8203040        1.1590510       -3.6927450
C       -6.9662340        1.9618370       -2.9956380
C       -5.8853320        1.4561660       -5.2175320
C       -6.0599910       -0.3722130       -3.4886690
H       -6.8254200        3.0449660       -3.1300020
H       -7.0127940        1.7603340       -1.9166480
H       -7.9405360        1.6879930       -3.4285770
H       -5.1252740        0.8929950       -5.7791650
H       -5.7545500        2.5269100       -5.4343130
H       -6.8693440        1.1593650       -5.6088030
H       -5.2701060       -0.9618790       -3.9776770
H       -7.0264990       -0.6680470       -3.9247130
H       -6.0746330       -0.6487560       -2.4255880
