50
Mol_000025_2D_DFT last geometry from G09 out file
Ru       -0.6584780        0.0894450        0.4323130
C        0.2713660       -0.1291290        1.9783470
Cl        0.8610880       -0.6529080       -1.2975790
Cl       -2.8654150        0.1658870        1.4055850
H        0.6820450        0.6504680        2.6301380
H        0.3751920       -1.1742590        2.3378030
C       -0.4210050        1.9862170        0.1428000
N        0.4765880        2.8927290        0.6995940
N       -1.2553050        2.7051250       -0.7050530
C        0.0698190        4.2950020        0.4053810
C        1.7131400        2.6571310        1.3931180
C       -0.8426040        4.1707080       -0.8464680
H        0.9583580        4.9085740        0.2265860
H       -0.4857680        4.7177830        1.2578870
C       -0.0617160        4.3827930       -2.1821250
C       -2.0544920        5.1368340       -0.7823400
C        0.3326840        5.8613150       -2.4263130
H        0.8350300        3.7437090       -2.1888220
H       -0.7011900        4.0461940       -3.0115350
C       -0.8850310        6.8087270       -2.3263460
H        1.1019660        6.1776630       -1.7013480
H        0.7992460        5.9446420       -3.4214500
C       -1.6350590        6.6142430       -0.9884850
H       -1.5762150        6.6076680       -3.1632990
H       -0.5586300        7.8563820       -2.4296510
H       -2.5374780        7.2466140       -0.9632670
H       -0.9971980        6.9526450       -0.1539510
H       -2.5743550        5.0153940        0.1802960
H       -2.7699040        4.8679840       -1.5726450
C        1.9738630        3.3491110        2.6027170
C        2.7075760        1.8111450        0.8422980
C        3.2124000        3.1895230        3.2575780
C        4.1980140        2.3340090        2.7190900
H        3.4002010        3.7242100        4.1902870
C        3.9357190        1.6456910        1.5137250
H        4.6904350        0.9837990        1.0857630
C       -2.2448140        2.0994370       -1.5781470
C       -1.8316630        1.3841830       -2.7285600
C       -3.6247370        2.2449600       -1.3026500
C       -2.7941260        0.8206650       -3.5924850
C       -4.1700740        0.9782430       -3.3238880
H       -2.4648150        0.2573770       -4.4669280
C       -4.5809360        1.6905300       -2.1755980
H       -5.6424180        1.7944170       -1.9458740
H       -3.9402590        2.7485800       -0.3915760
H       -4.9131610        0.5400400       -3.9922190
H        1.2099260        3.9935710        3.0387030
H        2.5123460        1.2787570       -0.0853770
H        5.1542850        2.2071550        3.2287230
H       -0.7715390        1.2505180       -2.9318520
