61
Mol_000032_2D_DFT last geometry from G09 out file
Ru       -0.0825660       -0.0741890        0.4883510
C       -1.2850380       -0.8611210       -0.6228520
Cl       -1.4324790        0.6024510        2.3870760
Cl        1.9141760       -1.0507690       -0.4657080
H       -1.6908980       -0.4739860       -1.5627990
H       -1.5962190       -1.8889250       -0.3366540
C        0.0818870        1.7009140       -0.2810700
N        1.1678970        2.5025090        0.0306150
N       -0.7218180        2.4063820       -1.1606360
C        1.1773810        3.8090770       -0.7026710
C        2.2209400        2.1813440        0.9653890
C        1.2596280        5.0440530        0.2459430
C       -0.1326840        3.7381870       -1.5488410
H        2.0575610        3.8273510       -1.3644180
C       -0.0681020        5.3603220        0.9031350
H        2.0504440        4.8778160        0.9885570
H        1.5881310        5.9020190       -0.3697990
C       -1.1999020        5.3096220        0.1591930
H       -0.0926140        5.6065790        1.9666060
C       -1.1013560        4.9348800       -1.3055660
H       -2.1807050        5.5132940        0.5935380
H       -2.0851980        4.7041410       -1.7325450
H       -0.7036180        5.7877070       -1.8866600
H        0.1089960        3.7060280       -2.6229690
C        1.9593490        2.0730850        2.3504840
C        3.5535180        2.0271050        0.5190960
C        2.9906100        1.7861640        3.2601030
C        4.3425970        1.6235850        2.8240420
H        2.7297950        1.6889280        4.3110850
C        4.5934130        1.7626600        1.4204160
H        5.5964030        1.6305680        1.0220840
C       -2.0234650        2.0475340       -1.6618480
C       -2.2217340        1.8354100       -3.0456880
C       -3.1433160        1.9611360       -0.8024340
C       -3.4950890        1.5441430       -3.5634040
C       -4.6370890        1.4433310       -2.7052740
H       -3.5902350        1.3825080       -4.6345010
C       -4.4173340        1.6558530       -1.3063040
H       -5.2401320        1.5823890       -0.5993700
H        0.9436950        2.2005380        2.7202910
H        3.7770160        2.0748150       -0.5468820
N        5.3757440        1.3409740        3.7264330
C        5.0774380        1.1399340        5.1512000
C        6.7433110        1.1124720        3.2403390
H        4.6241840        2.0386980        5.6034100
H        6.0062280        0.9286550        5.6936830
H        4.3892290        0.2914580        5.3153750
H        7.4055900        0.9142050        4.0910080
H        7.1398140        1.9946530        2.7088520
H        6.8026140        0.2463510        2.5569560
H       -1.3708390        1.8787000       -3.7276890
H       -3.0088280        2.1042260        0.2681110
N       -5.9096470        1.1492450       -3.2107140
C       -7.0567960        1.0220350       -2.3008470
C       -6.1003980        0.9107430       -4.6475700
H       -6.9121190        0.2125310       -1.5637510
H       -7.9587180        0.7901700       -2.8788840
H       -7.2460490        1.9575920       -1.7464930
H       -7.1589180        0.7093440       -4.8481840
H       -5.5196730        0.0413820       -5.0045790
H       -5.8074130        1.7874920       -5.2511670
