77
Mol_000001_2D_DFT last geometry from G09 out file
Ru       -0.0507990        0.0753600        0.6438920
C       -1.5261050       -0.7020470       -0.0757500
Cl       -0.7798130        0.1794090        2.9447710
Cl        1.5880690       -0.6588620       -0.9726040
H       -2.3372190       -0.2367350       -0.6406640
H       -1.6036030       -1.7973090        0.0957780
C       -0.2061360        1.9476600        0.1287620
N        0.7320660        2.9051940        0.5491310
N       -1.1384470        2.6175980       -0.6709700
C        0.5493790        4.1774620       -0.2235170
C        1.8869610        2.6930160        1.4132770
C        0.8979990        5.5436220        0.3835050
C       -0.9416320        4.1045490       -0.5514000
H        1.1252660        4.0822110       -1.1627120
C        0.5462030        6.6118620       -0.6952290
H        1.9642990        5.6081120        0.6440960
H        0.3209660        5.7225220        1.3025140
C       -0.9041770        6.4873700       -1.2449650
H        1.2598110        6.5208220       -1.5322640
H        0.6893870        7.6187810       -0.2712270
C       -1.2750280        5.0482560       -1.7157320
H       -1.6159900        6.7987750       -0.4608850
H       -1.0374980        7.1895970       -2.0836100
H       -2.3411110        5.0030590       -1.9807660
H       -0.6981640        4.7775690       -2.6129640
H       -1.5216860        4.4452180        0.3264580
C        3.1555300        2.3902570        0.8353880
C        1.7427290        2.9112050        2.8164920
C        4.2699500        2.1773770        1.6970760
C        4.1057200        2.2509870        3.1103690
C        2.8613180        2.6697190        3.6657550
C       -2.3278780        2.1126990       -1.3297370
C       -3.5757420        2.1585140       -0.6407230
C       -2.2339430        1.6765460       -2.6838130
C       -4.7579500        1.7711590       -1.3346710
C       -4.6766790        1.2937290       -2.6760380
C       -3.4219300        1.2568560       -3.3533770
C        3.3487730        2.3209430       -0.6726080
H        2.4013570        2.2482710       -1.2072300
H        3.9312050        1.4390100       -0.9621700
H        3.8893730        3.2113860       -1.0386530
C        0.4364930        3.4193370        3.4093880
H       -0.3454570        3.4998780        2.6529290
H        0.5771810        4.4146020        3.8630700
H        0.0586250        2.7452610        4.1873270
C        5.6358720        1.8592550        1.0961220
H        6.4568650        2.1713390        1.7520040
H        5.7834060        2.3640170        0.1338710
H        5.7535800        0.7771250        0.9114610
C        5.2676850        1.8875620        4.0310230
H        5.8789390        1.0815140        3.6067230
H        4.9167240        1.5413210        5.0093550
H        5.9380550        2.7467070        4.2099560
C        2.7294160        2.8488620        5.1754360
H        1.8759920        3.4777030        5.4457610
H        3.6252890        3.3116900        5.6114050
H        2.5834910        1.8781210        5.6799590
C       -3.6471740        2.5714780        0.8241780
H       -2.6641100        2.5621930        1.2987490
H       -4.2776510        1.8794890        1.3988570
H       -4.0796290        3.5790210        0.9456230
C       -0.8897760        1.6320060       -3.3979870
H       -0.6556130        0.6151210       -3.7451460
H       -0.0744200        1.9359460       -2.7405320
H       -0.8807150        2.2910000       -4.2808600
C       -6.1136880        1.8568380       -0.6397200
H       -6.1095490        2.5816200        0.1812060
H       -6.4150290        0.8847730       -0.2115260
H       -6.9059720        2.1611910       -1.3358400
C       -5.9440570        0.8184290       -3.3807390
H       -6.6178880        0.2948750       -2.6904680
H       -5.7263830        0.1292610       -4.2030260
H       -6.5121300        1.6638740       -3.8071180
C       -3.3591210        0.7709140       -4.7990780
H       -2.3892230        0.9673350       -5.2633840
H       -4.1235980        1.2577220       -5.4222890
H       -3.5325610       -0.3164070       -4.8663760
