43
Mol_000005_2D_DFT last geometry from G09 out file
Ru        0.1139200       -0.1452970        0.5088820
C       -1.2841980       -0.9392240       -0.3444630
Cl       -0.7155100       -0.0704250        2.7610370
Cl        1.8693080       -0.7717330       -0.9917490
H       -2.0228200       -0.4947870       -1.0141790
H       -1.3597350       -2.0325000       -0.1704710
C       -0.0928470        1.6963960        0.0899780
N        0.8948360        2.6358980        0.4890300
N       -1.1246260        2.4449220       -0.5206300
C        2.1524270        2.3329090        1.1732400
C        0.4507100        3.9866030        0.3319860
C        3.3760720        2.3034260        0.4447470
C        2.1130880        2.1349480        2.5726890
C        4.5521720        2.0354410        1.1895550
C        4.5246270        1.8221200        2.5821150
H        5.5051810        1.9924190        0.6602190
C        3.3007170        1.8732700        3.2805710
H        3.2654630        1.7123590        4.3582670
C       -0.7995530        3.8430360       -0.5990450
C       -2.3385310        1.9695700       -1.1732990
C       -3.5570320        1.8652060       -0.4442180
C       -2.2694110        1.6829990       -2.5555770
C       -4.6985760        1.4395280       -1.1715830
C       -4.6415930        1.1458830       -2.5495020
H       -5.6481380        1.3439040       -0.6433070
C       -3.4223310        1.2683750       -3.2491370
H       -3.3672190        1.0477670       -4.3154430
H       -5.5440380        0.8260710       -3.0728620
F        1.4295070        4.8560130       -0.1928880
F        0.0752970        4.5891080        1.5830780
F       -0.4744900        4.2521380       -1.9377510
F       -1.8676880        4.6867350       -0.2245770
C        3.4760240        2.5634610       -1.0467300
H        2.6127730        2.1733640       -1.5958790
H        4.3748270        2.0871870       -1.4589730
H        3.5440480        3.6429310       -1.2506550
H        1.1611860        2.1803940        3.0954080
H        5.4532430        1.6167110        3.1171960
C       -3.6694490        2.1890670        1.0340000
H       -2.9029380        1.6774980        1.6289970
H       -4.6514200        1.8889090        1.4214360
H       -3.5564950        3.2684300        1.2126120
H       -1.3178890        1.7828700       -3.0762240
