58
Mol_000028_2D_DFT last geometry from G09 out file
Ru        0.2885500       -0.3785910        0.4821410
C        2.0820140       -0.5572060        0.2501200
Cl       -0.4180890       -1.4056620       -1.5736170
Cl        0.0906170       -0.1657440        2.8777010
H        2.7949000        0.1806340       -0.1269530
H        2.4907890       -1.5611360        0.4887150
C        0.0135050        1.5044090        0.1730100
N        0.9064790        2.5622770        0.2126280
N       -1.2799020        2.0508130       -0.0106800
C        0.2436640        3.8904600        0.1346840
C        2.3129690        2.5796540        0.5781660
C       -1.2464290        3.5374220       -0.0799300
H        0.6450090        4.4882910       -0.6917070
H        0.4157510        4.4410470        1.0690010
H       -1.6083960        3.8797150       -1.0598450
C        2.6483240        2.4155250        1.9434630
C        3.3112250        2.8536930       -0.4033950
C        3.9889750        2.5035680        2.3603070
C        4.9945940        2.7756610        1.4082360
H        4.2412830        2.3621930        3.4118460
C        4.6519920        2.9471230        0.0532540
H        5.4442790        3.1533310       -0.6666280
C       -2.4092550        1.3764780       -0.6723690
C       -2.4286940        1.4730730       -2.0874260
C       -3.4704760        0.7377660        0.0306700
C       -3.4959010        0.9577870       -2.8371210
C       -4.5632520        0.3300670       -2.1606430
H       -3.4865470        1.0269130       -3.9254640
C       -4.5343250        0.2226170       -0.7607090
H       -5.3625530       -0.2764380       -0.2587560
H       -1.5826580        1.9316300       -2.6017060
C       -3.5228150        0.5490290        1.5550820
C       -3.5171430       -0.9614420        1.9349370
C       -4.7539280        1.2484560        2.2009020
H       -2.6226800        0.9988560        1.9914890
H       -3.4309820       -1.0701250        3.0256070
H       -2.6737670       -1.4962060        1.4794890
H       -4.4439810       -1.4605200        1.6148900
H       -4.7025290        1.1460050        3.2956490
H       -5.6996680        0.7940260        1.8696310
H       -4.7908420        2.3180290        1.9616890
C       -2.1431060        4.2642920        0.9491500
F       -3.5154730        4.1157210        0.6829340
F       -1.9240400        3.8713370        2.2807280
F       -1.8829000        5.6639120        0.8871610
H       -5.4045770       -0.0810160       -2.7210330
H        1.8603030        2.1924330        2.6598630
C        2.9917490        3.0315440       -1.8976260
C        3.6858700        1.9560560       -2.7820020
C        3.3414510        4.4631300       -2.3983250
H        1.9099420        2.8874040       -2.0305590
H        3.3871140        0.9399570       -2.4880710
H        4.7821200        2.0205010       -2.7222850
H        3.4001890        2.0948670       -3.8359200
H        3.0159700        4.5914530       -3.4421360
H        4.4246860        4.6500240       -2.3629290
H        2.8531110        5.2403500       -1.7910590
H        6.0379850        2.8527580        1.7185490
