89
Mol_000024_2D_DFT last geometry from G09 out file
Ru        0.8647520       -0.1500950       -0.0839400
C        0.2240270       -0.5707190       -1.7314280
Cl       -0.6213470       -1.2755390        1.4395300
Cl        3.1296010        0.3822290       -0.7665400
H       -0.2677990        0.0978890       -2.4466930
H        0.4128620       -1.6082030       -2.0786910
C        0.1534810        1.6453890        0.1176670
N        0.6849550        2.5405820        1.0381450
N       -0.8474720        2.3100150       -0.5759930
C        1.5453370        2.1546730        2.1255520
C        0.1914930        3.9759010        0.8401490
C        2.9547330        2.2871410        2.0865940
C        1.0149810        1.6646320        3.3443630
C        3.7708600        1.9328790        3.1689770
C        3.2135640        1.4080840        4.3799850
H        4.8459430        2.0372060        3.0532020
C        1.7906370        1.2872910        4.4415100
H        1.2750730        0.9037460        5.3164060
C       -1.0168380        3.7165370       -0.1052760
H       -1.9773980        3.7980320        0.4263350
H       -1.0308430        4.4027240       -0.9590010
C       -1.8921500        1.7548890       -1.3815120
C       -2.1567400        2.2276880       -2.6851930
C       -2.7884180        0.7726440       -0.8910290
C       -3.2108320        1.7799170       -3.4850010
C       -4.0963430        0.7722470       -2.9895400
H       -3.3156600        2.2120970       -4.4754380
C       -3.8483570        0.2818270       -1.6658420
H       -4.4835130       -0.4848050       -1.2308640
F       -1.3088140        3.2164830       -3.2388220
H       -2.6243650        0.3704760        0.1065160
C       -0.2701640        4.5898400        2.1992650
C       -0.9128150        5.9992780        2.1299890
H        0.5956380        4.6357260        2.8775260
H       -0.9919840        3.8958100        2.6531350
C       -1.4863100        6.4447970        3.4985140
H       -0.1713340        6.7436670        1.7998410
H       -1.7261970        6.0143880        1.3845230
C       -2.1104100        7.8607220        3.4737340
H       -2.2478350        5.7162390        3.8283410
H       -0.6825370        6.4150400        4.2556220
C       -2.6879860        8.3067330        4.8389380
H       -2.9125040        7.8930850        2.7145290
H       -1.3473650        8.5905930        3.1486050
C       -3.3099690        9.7208240        4.8125290
H       -1.8877560        8.2755980        5.5994090
H       -3.4520190        7.5792090        5.1652420
H       -4.1392180        9.7787250        4.0891330
H       -3.7086260        9.9994450        5.8009590
H       -2.5639670       10.4798280        4.5266840
C        1.3065360        4.8559430        0.1826570
C        1.9072320        4.3806610       -1.1619990
H        2.1183650        4.9743510        0.9189180
H        0.8805000        5.8612360        0.0355960
C        3.0213560        5.3286210       -1.6717490
H        2.3203660        3.3687180       -1.0591180
H        1.1200500        4.3181150       -1.9298510
C        3.6356050        4.8746350       -3.0181450
H        2.6169060        6.3516080       -1.7824710
H        3.8223450        5.3932030       -0.9127800
C        4.7654840        5.8008820       -3.5287850
H        2.8385540        4.8208920       -3.7810220
H        4.0271460        3.8483020       -2.9091830
C        5.3736800        5.3442750       -4.8739700
H        5.5648900        5.8521070       -2.7681710
H        4.3748970        6.8287470       -3.6364470
H        4.6098970        5.3177950       -5.6678810
H        6.1752780        6.0252330       -5.2024950
H        5.8042670        4.3334300       -4.7925280
N       -5.1553000        0.2940970       -3.7658700
C       -5.3729260        0.8127700       -5.1234400
C       -6.0449450       -0.7520930       -3.2399510
H       -6.2460490        0.3219770       -5.5678120
H       -4.5077000        0.6192970       -5.7817720
H       -5.5651450        1.8999240       -5.1209870
H       -6.8027140       -0.9988580       -3.9921620
H       -6.5718930       -0.4221920       -2.3281290
H       -5.4939490       -1.6781010       -3.0011350
H        3.4189120        2.6347460        1.1681430
F       -0.3798550        1.5564810        3.4913360
N        4.0177440        1.0282730        5.4562700
C        3.4141160        0.4411630        6.6616510
C        5.4816640        1.1288010        5.3587610
H        2.7180600        1.1426920        7.1528710
H        4.2015870        0.1948490        7.3827510
H        2.8620940       -0.4874610        6.4341520
H        5.8855830        0.4975590        4.5480360
H        5.9337610        0.7964250        6.3000880
H        5.8074490        2.1674930        5.1798810
