56
Mol_000012_2D_DFT last geometry from G09 out file
Ru       -0.2095470        0.0471360        0.0526140
C        1.5621940       -0.2677320        0.3053820
Cl       -0.3244360       -0.2664650       -2.3346400
Cl       -1.0670840       -0.3929530        2.2750130
H        2.3875200        0.4403420        0.4106970
H        1.8340720       -1.3452050        0.3200280
C       -0.3734970        1.9874700        0.1333140
N        0.4482200        2.9641180        0.6627680
N       -1.5257530        2.6271910       -0.3268620
C       -0.1908320        4.3184870        0.6831140
C        1.8530810        2.8771000        0.9845400
C       -1.5395980        4.1123330       -0.0521590
H        0.4522860        5.0423600        0.1626790
H       -0.3328570        4.6289570        1.7220910
H       -1.5446190        4.6489810       -1.0097860
C        2.3303110        2.7480070        2.3209720
C        2.7746480        2.9738000       -0.0856140
C        3.7321450        2.6872710        2.5319320
C        4.6444420        2.7907720        1.4635390
H        4.1155010        2.5872930        3.5477150
C        4.1636550        2.9366220        0.1455610
H        4.8573930        3.0130790       -0.6925520
C       -2.6933490        1.9802490       -0.8835760
C       -3.2133070        2.3581510       -2.1569940
C       -3.3905950        1.0391830       -0.0917970
C       -4.4280740        1.7702000       -2.5919190
C       -5.0875080        0.7899010       -1.8260550
H       -4.8397190        2.0813410       -3.5518800
C       -4.5615810        0.4206880       -0.5721150
H       -5.0686230       -0.3204960        0.0472380
C       -2.5906090        3.3616480       -3.1130930
C       -1.1579280        3.1642800       -3.5852440
O       -3.3053300        4.2899340       -3.5857440
H       -1.1366870        2.3072260       -4.2780650
H       -0.8140210        4.0594050       -4.1180290
H       -0.4742560        2.8979670       -2.7736870
H       -3.0324260        0.8191440        0.9110050
C       -2.7604550        4.5685280        0.7533680
C       -3.7560780        5.3830290        0.1671420
N       -2.8216610        4.1543780        2.0521410
C       -4.8528250        5.7902510        0.9574640
H       -3.6872280        5.6820900       -0.8784720
C       -4.9224820        5.3674940        2.3006890
H       -5.6347960        6.4191640        0.5300060
C       -3.8844680        4.5483250        2.8009110
H       -5.7523640        5.6591440        2.9447980
H       -3.8953610        4.1944030        3.8335210
H       -6.0047350        0.3327490       -2.1993000
C        1.4175400        2.7688170        3.5404450
C        1.4991620        1.6119400        4.5227840
O        0.6284370        3.7321290        3.7162540
H        0.9369300        0.7637350        4.0993570
H        2.5279950        1.2666610        4.6919050
H        1.0324600        1.8950970        5.4738880
H        2.3910910        3.0587260       -1.1026440
H        5.7170040        2.7594560        1.6596530
