91
Mol_000341_2D_DFT last geometry from G09 out file
 Ru        0.2041670        0.2241380       -0.6235470
 C       -1.3661970       -0.5816820       -1.0383870
 Cl        0.4221170       -0.4911220        1.6696740
 Cl        0.9873110        0.4872760       -2.9108380
 H       -2.3633560       -0.1620430       -1.1767910
 H       -1.2622060       -1.6754690       -1.2122710
 C       -0.1283260        2.1184220       -0.3367950
 N        0.9452470        2.9547700        0.0078230
 N       -1.2494380        2.9079160       -0.5337960
 C        0.5979620        4.4260520       -0.1917100
 C        1.9843020        2.5919030        0.9912490
 C       -0.9633830        4.4016870       -0.3778190
 H        0.8552130        4.9439700        0.7400220
 H       -1.2190700        4.8631910       -1.3401750
 C        1.6523910        2.8567280        2.3466970
 C        3.2722320        2.0639910        0.6755740
 C        2.5636860        2.6652110        3.3885070
 C        3.8625630        2.1896410        3.0900850
 H        2.2858200        2.8657810        4.4220760
 C        4.1831860        1.8918040        1.7511350
 H        5.1808750        1.5202530        1.5321280
 C       -2.4575040        2.4716850       -1.2274540
 C       -2.5236630        2.7254660       -2.6180790
 C       -3.5566730        1.8484870       -0.5546380
 C       -3.6717220        2.4231760       -3.3656880
 C       -4.7872630        1.8493490       -2.7129450
 H       -3.7016030        2.6166660       -4.4352540
 C       -4.7060600        1.5644070       -1.3300630
 H       -5.5724310        1.1028780       -0.8627280
 H       -1.6531290        3.1403610       -3.1210170
 C       -3.5258710        1.4927840        0.9339360
 C       -4.3267870        0.2365890        1.3694660
 H       -3.9146970        2.3475400        1.5127570
 H       -2.4848940        1.3590350        1.2482770
 C       -4.0842030       -0.1110900        2.8554460
 H       -4.0408810       -0.6264490        0.7471030
 H       -5.4062290        0.3938220        1.2139800
 H       -4.3775050        0.7205670        3.5167990
 H       -4.6732780       -0.9933280        3.1499400
 H       -3.0235800       -0.3369160        3.0428180
 C        1.4321540        5.1415060       -1.3541680
 C        2.9264380        5.2472180       -0.9254940
 C        1.3252140        4.3940280       -2.7107540
 C        0.9452460        6.6069020       -1.5774850
 H        3.0302510        5.7292130        0.0591320
 H        3.4771400        5.8618300       -1.6530850
 H        3.4173460        4.2752160       -0.8813570
 H        0.3160340        4.4703280       -3.1412580
 H        1.5753690        3.3335580       -2.6280150
 H        2.0151600        4.8489370       -3.4370100
 H        1.0677120        7.2277080       -0.6803700
 H       -0.1007220        6.6687010       -1.9037490
 H        1.5551490        7.0578860       -2.3740650
 C       -6.0568250        1.5099760       -3.4289290
 O       -5.9983900        1.8423230       -4.7849450
 O       -7.0674750        0.9914280       -2.9001280
 C       -7.2016230        1.5389740       -5.5905090
 H       -6.9460900        1.8660160       -6.6041030
 H       -7.4169740        0.4619460       -5.5671160
 H       -8.0700520        2.0908970       -5.2053930
 C       -1.8394490        5.1746060        0.7170650
 C       -1.7480620        4.5470730        2.1360510
 C       -1.3728840        6.6597030        0.8362500
 C       -3.3301460        5.2444560        0.2588060
 H       -1.8590900        3.4594480        2.1220190
 H       -2.5442440        4.9581180        2.7742680
 H       -0.7955820        4.7933740        2.6237010
 H       -1.5108830        7.2145430       -0.1006580
 H       -0.3253260        6.7569310        1.1457390
 H       -1.9832960        7.1563260        1.6048160
 H       -3.8414730        4.2815100        0.3042260
 H       -3.4173080        5.6237920       -0.7706810
 H       -3.8802450        5.9383140        0.9116550
 H        0.6491120        3.1942180        2.5823210
 C        3.7769180        1.6874880       -0.7172360
 C        4.2368090        0.2056950       -0.8606260
 H        4.6481680        2.3240630       -0.9519100
 H        3.0195090        1.8912220       -1.4787810
 C        4.9202050       -0.0671500       -2.2180650
 H        3.3687610       -0.4604850       -0.7473890
 H        4.9338340       -0.0534350       -0.0484380
 H        5.8224100        0.5540110       -2.3438330
 H        5.2275430       -1.1220330       -2.2924540
 H        4.2398040        0.1425710       -3.0554380
 C        4.8324120        2.0148550        4.2142720
 O        6.0569530        1.4939650        3.7824600
 O        4.6021560        2.2942560        5.4138510
 C        7.0797420        1.2686790        4.8262890
 H        7.9409710        0.8592130        4.2872250
 H        7.3388820        2.2145560        5.3218510
 H        6.7109170        0.5560820        5.5767470
