79
M00000113_2D_DFT last geometry from G09 out file
Ru        0.1537110        0.0008090       -0.3224480
C       -1.4016870       -0.7586520       -0.8632570
Cl        0.0118420       -0.4736670        2.0385680
Cl        1.2538140       -0.0360880       -2.4893600
H       -2.3480980       -0.3047320       -1.1603430
H       -1.3452350       -1.8677850       -0.9241130
C       -0.0903220        1.9306230       -0.2479950
N        0.9662170        2.7439570        0.1914950
N       -1.1182020        2.7582060       -0.6719550
C        0.7432960        4.2046600       -0.1658460
C        1.8697410        2.4006090        1.3007130
C       -0.7766970        4.2432660       -0.5618170
H        0.9084180        4.7886840        0.7469400
H       -0.8771940        4.6596050       -1.5720370
C        1.4716180        2.8429490        2.5898170
C        3.1010880        1.6993900        1.1532920
C        2.2605640        2.6273630        3.7234700
C        3.4898570        1.9371050        3.5941140
H        1.9334500        2.9636460        4.7061740
C        3.8801900        1.4824270        2.3186050
H        4.8207250        0.9437510        2.2203560
C       -2.2383860        2.3338090       -1.5023000
C       -2.1093400        2.4970230       -2.9031680
C       -3.4470660        1.8077790       -0.9543110
C       -3.1648280        2.1920780       -3.7742190
C       -4.3846520        1.7032600       -3.2485120
H       -3.0547150        2.3142970       -4.8506640
C       -4.4996480        1.5071360       -1.8534030
H       -5.4309950        1.1081750       -1.4565860
H       -1.1621840        2.8417500       -3.3112340
C       -3.6638530        1.5342530        0.5260890
H       -4.1211350        2.3983370        1.0313280
H       -2.7339730        1.2922300        1.0486330
H       -4.3521200        0.6882870        0.6596610
C        1.7658180        4.7737970       -1.2550140
C        3.2054300        4.7910990       -0.6580500
C        1.7555620        3.9541570       -2.5742500
C        1.4247160        6.2550600       -1.6058950
H        3.2367540        5.3189680        0.3076790
H        3.8824730        5.3201860       -1.3450860
H        3.6099880        3.7890010       -0.5092330
H        0.8194550        4.0920840       -3.1342330
H        1.8935250        2.8823660       -2.4071430
H        2.5692130        4.3001320       -3.2290040
H        1.4878300        6.9145850       -0.7298280
H        0.4310100        6.3718820       -2.0567490
H        2.1555420        6.6181330       -2.3433390
C       -5.4971980        1.3973510       -4.2013000
O       -6.6201480        0.8763550       -3.5514180
O       -5.4532560        1.5787350       -5.4396930
C       -7.7775160        0.5357590       -4.4081280
H       -8.5326430        0.1513200       -3.7140980
H       -8.1428670        1.4294040       -4.9324690
H       -7.4960310       -0.2278810       -5.1460170
C       -1.7485220        5.1158150        0.3635220
C       -1.8866330        4.5565460        1.8073020
C       -1.2188980        6.5800820        0.4773740
C       -3.1562730        5.2329920       -0.3008740
H       -2.0410990        3.4740270        1.8258150
H       -2.7448550        5.0287600        2.3079400
H       -1.0023470        4.7902510        2.4147010
H       -1.9016300        7.1493060        1.1253460
H       -1.1909980        7.0881460       -0.4953560
H       -0.2214240        6.6423430        0.9293270
H       -3.0807380        5.5715520       -1.3455430
H       -3.7559620        5.9780880        0.2427590
H       -3.7160480        4.2961330       -0.2936630
H        0.5109690        3.3334240        2.7048080
C        3.6499370        1.1514180       -0.1513550
H        4.7083630        1.4288340       -0.2680790
H        3.1025020        1.4918260       -1.0295840
H        3.6088870        0.0516520       -0.1570780
C        4.3151490        1.7175340        4.8211680
O        5.4782300        0.9882950        4.5538450
O        4.0231970        2.1289860        5.9681990
C        6.3558620        0.7036210        5.7093630
H        7.1905640        0.1318910        5.2894880
H        6.7088460        1.6394170        6.1644400
H        5.8165640        0.1148240        6.4640190
