79
M00000112_2D_DFT last geometry from G09 out file
Ru        0.5673790       -0.3347170       -1.0044840
C       -0.7311770       -0.9765290       -2.0997480
Cl       -0.0406010       -1.4832350        1.0232610
Cl        2.1857410        0.4364440       -2.6536240
H       -1.6802540       -0.5232260       -2.3946440
H       -0.5250140       -1.9944210       -2.4973730
C       -0.0040210        1.4624980       -0.5386220
N        0.7399530        2.2038070        0.3694300
N       -0.9941410        2.2873280       -1.0449740
C        0.2980340        3.6283560        0.4796140
C        1.8004210        1.6887600        1.2278580
C       -0.9056310        3.6978290       -0.5223480
H       -0.0521660        3.8291150        1.4957360
H       -0.6552790        4.3547150       -1.3658940
C        1.5723640        1.4295700        2.6121530
C        3.0784000        1.4763640        0.6551540
C        2.6718750        0.9472120        3.3677250
C        3.9402790        0.7257640        2.8004060
H        2.5151900        0.7152180        4.4225520
C        4.1459150        0.9898000        1.4313670
H        5.1183020        0.8173990        0.9680340
C       -2.0877370        1.9345120       -1.9262930
C       -2.0434880        2.2005850       -3.3257350
C       -3.2385110        1.3574550       -1.3338350
C       -3.1921110        1.8567020       -4.0879540
C       -4.3367400        1.2830760       -3.5030690
H       -3.1751430        2.0288070       -5.1657540
C       -4.3611120        1.0280050       -2.1143660
H       -5.2364600        0.5745690       -1.6473650
C       -0.8282750        2.7847410       -4.0386990
C       -1.0414580        4.2165970       -4.6101750
H        0.0423690        2.7789820       -3.3741400
H       -0.5654570        2.1190540       -4.8775670
C        0.1995840        4.7494640       -5.3660740
H       -1.9079800        4.2185330       -5.2922530
H       -1.2951220        4.9124510       -3.7918590
C        0.0039090        6.1698590       -5.9408620
H        0.4493920        4.0544690       -6.1865850
H        1.0704070        4.7465160       -4.6873670
H       -0.2055550        6.9004720       -5.1428070
H       -0.8369760        6.2013220       -6.6522480
H        0.9054220        6.5087390       -6.4751050
H       -3.2296310        1.1580220       -0.2634750
C        1.3889740        4.6580680        0.1729420
C        2.2423050        4.5706730       -0.9533560
N        1.4501040        5.6983970        1.0590310
C        3.1915060        5.5889740       -1.1694440
H        2.1786820        3.7219700       -1.6325720
C        3.2619290        6.6673090       -0.2606930
H        3.8666050        5.5379250       -2.0249580
C        2.3711060        6.6771800        0.8331400
H        3.9856370        7.4723680       -0.3904130
H        2.3891480        7.4883460        1.5637480
H       -5.1965100        1.0272280       -4.1247890
C       -2.1976140        4.2275890        0.1057150
C       -2.9069070        5.2910540       -0.4976680
N       -2.6139080        3.6439560        1.2683850
C       -4.0846570        5.7683880        0.1147800
H       -2.5481430        5.7365690       -1.4254340
C       -4.5219180        5.1656940        1.3116950
H       -4.6463160        6.5893770       -0.3328060
C       -3.7526180        4.1089310        1.8473760
H       -5.4262080        5.5011650        1.8197020
H       -4.0524850        3.6152560        2.7737770
C        0.2273650        1.5924710        3.3127060
C        0.2077290        2.7101320        4.3966440
H       -0.5742410        1.7744090        2.5887250
H       -0.0158500        0.6334540        3.7983610
C       -1.1240010        2.7566630        5.1831540
H        1.0361660        2.5515820        5.1068900
H        0.3907550        3.6904260        3.9260090
C       -1.1653220        3.8748460        6.2486110
H       -1.2909780        1.7802370        5.6716550
H       -1.9579050        2.8944420        4.4749530
H       -1.0405530        4.8682680        5.7885540
H       -0.3616190        3.7485160        6.9918930
H       -2.1243970        3.8737600        6.7912450
H        3.2268340        1.6756460       -0.4017890
H        4.7543050        0.3405510        3.4170380
