94
M00000292_2D_DFT last geometry from G09 out file
 Ru        0.1362690       -0.3896660        0.0776600
 C        0.8359070       -0.5861530        1.7429810
 Cl        2.1110880       -0.4757980       -1.3166340
 Cl       -2.0514680       -1.2792440        0.5563440
 H        0.9230690        0.1669910        2.5328980
 H        1.1760080       -1.6097250        2.0055730
 C       -0.0669330        1.5428710       -0.0707620
 N        0.5220360        2.5506330        0.6788460
 N       -0.7757500        2.1581670       -1.1133970
 C        0.0782370        3.9037290        0.2320400
 C        1.5553570        2.4794430        1.6852400
 C       -0.4251060        3.6632320       -1.2132100
 H        0.9261630        4.5941320        0.2726450
 H       -0.7153490        4.2816350        0.8926780
 C        0.7101760        3.8751490       -2.2616510
 C       -1.6481760        4.5485100       -1.5595480
 C        1.0887490        5.3664960       -2.4485070
 H        1.5943480        3.2900960       -1.9686350
 H        0.3735050        3.4728430       -3.2225790
 C       -0.1469250        6.2389720       -2.7680320
 H        1.5885040        5.7584510       -1.5459910
 H        1.8279280        5.4416850       -3.2627130
 C       -1.2568080        6.0412840       -1.7100300
 H       -0.5395940        5.9659360       -3.7628250
 H        0.1410550        7.3019170       -2.8207890
 H       -2.1559060        6.6147760       -1.9897090
 H       -0.9208490        6.4475910       -0.7405860
 H       -2.4261810        4.4392020       -0.7899830
 H       -2.0867200        4.2071550       -2.5074660
 C        1.3216140        2.9346770        3.0157740
 C        2.8547120        2.0680570        1.3084150
 C        2.4237920        2.9553960        3.9148840
 C        3.7268540        2.5350780        3.5632040
 H        2.2226290        3.2872870        4.9297460
 C        3.9130780        2.0822370        2.2296710
 H        4.8908570        1.7407850        1.8917440
 C       -2.0072580        1.6296170       -1.6893610
 C       -2.2068320        1.3420180       -3.0731650
 C       -3.1135330        1.5162850       -0.8103640
 C       -3.5068610        0.9285050       -3.4841220
 C       -4.6087310        0.7906190       -2.6123520
 H       -3.6257090        0.6886140       -4.5368780
 C       -4.3775220        1.1045500       -1.2493280
 H       -5.1759330        1.0175090       -0.5136750
 H       -2.9643890        1.7456950        0.2426770
 C       -6.0056870        0.3005650       -3.0816480
 C       -7.0824190        1.3788190       -2.7345680
 C       -6.0689660        0.0357190       -4.6123060
 C       -6.3494370       -1.0348820       -2.3448710
 H       -6.8676860        2.3289250       -3.2470760
 H       -7.1300580        1.5818520       -1.6558450
 H       -8.0790980        1.0368780       -3.0532500
 H       -5.3649680       -0.7502230       -4.9225440
 H       -5.8546740        0.9429640       -5.1970190
 H       -7.0794770       -0.3020060       -4.8855550
 H       -5.6037220       -1.8108160       -2.5721500
 H       -7.3371950       -1.4025670       -2.6632720
 H       -6.3730620       -0.9077690       -1.2539840
 C       -0.0197690        3.3763560        3.5271700
 C       -1.1759770        2.5592620        3.4074040
 C       -0.1484280        4.6207210        4.2014900
 C       -2.4126450        2.9738520        3.9435270
 H       -1.1133670        1.5920550        2.9132440
 C       -2.5263530        4.2149600        4.6073600
 H       -3.2822510        2.3207230        3.8503060
 C       -1.3862740        5.0379350        4.7331350
 H       -3.4845480        4.5328680        5.0219870
 H       -1.4593720        6.0011760        5.2416450
 H        0.7223820        5.2712260        4.2969540
 H        3.0225140        1.7209470        0.2916500
 C        4.9176140        2.5452240        4.5613970
 C        6.0575280        3.4550600        3.9989360
 C        4.5227150        3.0843660        5.9651430
 C        5.4554980        1.0880330        4.7376560
 H        5.7070040        4.4901960        3.8697790
 H        6.4254690        3.1012410        3.0261210
 H        6.9112130        3.4679160        4.6936870
 H        3.7468680        2.4663060        6.4406840
 H        4.1600690        4.1222230        5.9207600
 H        5.4026570        3.0713630        6.6247240
 H        4.6738600        0.4270940        5.1413390
 H        6.3057930        1.0777700        5.4366770
 H        5.7994640        0.6583580        3.7868610
 C       -1.1778510        1.4455740       -4.1642010
 C        0.0237390        0.6953470       -4.1469740
 C       -1.4472950        2.2514170       -5.3046800
 C        0.9304830        0.7560960       -5.2255240
 H        0.2600540        0.0592380       -3.2995240
 C        0.6558090        1.5662380       -6.3483280
 H        1.8471100        0.1657210       -5.1831430
 C       -0.5405970        2.3158460       -6.3828470
 H        1.3584170        1.6102400       -7.1825950
 H       -0.7682280        2.9464540       -7.2446900
 H       -2.3676590        2.8367980       -5.3430700
