89
M00000291_2D_DFT last geometry from G09 out file
 Ru       -0.3160290       -0.1237260        0.2152230
 C        1.4373880       -0.5583500        0.4113290
 Cl       -0.6161870       -0.8289650       -2.0749920
 Cl       -1.0735890       -0.3686410        2.4921810
 H        2.3070020        0.1052650        0.3891500
 H        1.6468280       -1.6390630        0.5568650
 C       -0.2879050        1.8305950        0.1596120
 N        0.7417850        2.7300950        0.4165390
 N       -1.4476990        2.5873970       -0.0755760
 C        0.2979000        4.1405370        0.2029180
 C        2.1311750        2.5467540        0.7836520
 C       -1.2435530        4.0515670        0.3114950
 H        0.6441340        4.4869830       -0.7816850
 H        0.7307350        4.7852050        0.9757790
 C       -1.7482690        4.3767930        1.7602920
 C       -1.9702000        5.0972260       -0.5740720
 C       -2.1779520        5.8775720        1.7478450
 H       -0.9643490        4.1761730        2.5002850
 H       -2.5806280        3.7073780        1.9918110
 C       -1.9490580        6.3804230        0.2891170
 H       -3.2390650        5.9733160        2.0226330
 H       -1.6096220        6.4803020        2.4717680
 H       -0.9720950        6.8822210        0.2020950
 H       -2.7112150        7.1056070       -0.0321040
 H       -3.0083600        4.7822950       -0.7481980
 H       -1.4963840        5.2313440       -1.5548580
 C        3.1610000        2.7574210       -0.1986710
 C        2.4889890        2.3610140        2.1532600
 C        4.5157700        2.7279270        0.2167220
 C        4.8908590        2.5055150        1.5610090
 H        5.2929950        2.8381800       -0.5360100
 C        3.8568510        2.3222730        2.5090320
 H        4.1119660        2.1999700        3.5610570
 C       -2.6162240        2.1267200       -0.8185870
 C       -2.5251270        2.0543250       -2.2476970
 C       -3.8750750        1.8134450       -0.1984750
 C       -3.6157390        1.5584800       -2.9939790
 C       -4.8235670        1.1454540       -2.3934430
 H       -3.5153600        1.5118330       -4.0786890
 C       -4.9296910        1.3097340       -0.9945320
 H       -5.8543860        1.0225020       -0.4963800
 N        2.8368140        3.0360670       -1.5734770
 C        3.7355230        3.9547370       -2.3023410
 C        2.4119790        1.8848390       -2.4071260
 H        4.6753140        3.4840730       -2.6605920
 H        3.9972970        4.8115380       -1.6677140
 H        3.2033920        4.3339540       -3.1884510
 H        3.2662270        1.2252560       -2.6679150
 H        1.9726220        2.2546680       -3.3441080
 H        1.6603890        1.2832030       -1.8960710
 C        1.4538340        2.2766810        3.2607340
 H        1.9227140        1.9602440        4.2016530
 H        0.6463180        1.5753530        3.0351700
 H        0.9938090        3.2611220        3.4430940
 C        6.3296190        2.4624720        1.9661300
 C        6.7873140        1.5351950        2.9411850
 C        7.2827130        3.3458700        1.3904760
 C        8.1427520        1.4925110        3.3253360
 H        6.0856880        0.8254710        3.3807390
 C        9.0768470        2.3773440        2.7438760
 H        8.4699460        0.7643740        4.0698690
 C        8.6384200        3.3049300        1.7737860
 H       10.1264990        2.3445510        3.0408820
 H        9.3485660        4.0008930        1.3231480
 H        6.9580260        4.0883120        0.6604100
 C       -1.3169900        2.5193250       -3.0452350
 H       -0.5226610        2.9313420       -2.4233770
 H       -1.6226260        3.2914870       -3.7693620
 H       -0.8934160        1.6796070       -3.6110870
 N       -4.1366220        2.0462280        1.2210000
 C       -5.1461420        3.1112250        1.4559030
 C       -4.4447820        0.8270850        2.0120850
 H       -5.1397070        3.3773300        2.5242170
 H       -6.1830660        2.8115660        1.1918120
 H       -4.8979090        4.0083770        0.8752470
 H       -3.6912850        0.0590480        1.8267380
 H       -5.4506100        0.4060170        1.7975500
 H       -4.4046620        1.0800590        3.0820610
 C       -5.9445780        0.5804920       -3.2040420
 C       -7.2981480        0.9122980       -2.9261850
 C       -5.6842740       -0.3131660       -4.2780810
 C       -8.3511330        0.3732820       -3.6927260
 H       -7.5285890        1.6155690       -2.1248610
 C       -8.0762440       -0.5132470       -4.7567960
 H       -9.3822180        0.6503710       -3.4648600
 C       -6.7364580       -0.8538910       -5.0443220
 H       -8.8911870       -0.9323100       -5.3496370
 H       -6.5110330       -1.5475300       -5.8564930
 H       -4.6575340       -0.6117200       -4.4921630
