85
M00000287_2D_DFT last geometry from G09 out file
 Ru        0.2656760        0.0873110       -0.5601780
 C       -1.2703280       -0.6799170       -1.1429600
 Cl        0.1788110       -0.5318890        1.7691580
 Cl        1.3237930        0.2226680       -2.7463900
 H       -2.2211740       -0.2290200       -1.4295860
 H       -1.1891080       -1.7828010       -1.2626310
 C       -0.0368900        1.9987290       -0.3653020
 N        1.0222590        2.8211790        0.0513470
 N       -1.1192080        2.8075330       -0.6727160
 C        0.7264980        4.2927850       -0.2108320
 C        1.9722330        2.4615260        1.1226030
 C       -0.8150570        4.2972370       -0.5185770
 H        0.9224390        4.8300890        0.7245480
 H       -0.9843020        4.7484110       -1.5041740
 C        1.5470300        2.7751580        2.4410910
 C        3.2650910        1.8903920        0.9217540
 C        2.3700200        2.5850680        3.5543940
 C        3.6704490        2.0584850        3.3702880
 H        2.0208430        2.8233740        4.5578870
 C        4.0837850        1.7148740        2.0679560
 H        5.0801970        1.3014250        1.9370780
 C       -2.2790240        2.3846830       -1.4509610
 C       -2.2403080        2.6314390       -2.8442000
 C       -3.4338690        1.7819600       -0.8580700
 C       -3.3369940        2.3425970       -3.6685490
 C       -4.5056700        1.7870510       -3.0976210
 H       -3.2975680        2.5305010       -4.7403860
 C       -4.5292710        1.5063150       -1.7119040
 H       -5.4260470        1.0570530       -1.2972200
 H       -1.3304170        3.0315940       -3.2856190
 C       -3.5177060        1.4381030        0.6321490
 C       -4.4059250        0.2304350        1.0139130
 H       -3.8982890        2.3182020        1.1766860
 H       -2.5084340        1.2545390        1.0158320
 H       -4.2976360        0.0311220        2.0905240
 H       -4.1082670       -0.6825310        0.4783630
 H       -5.4738570        0.4086420        0.8207320
 C        1.6635970        4.9597440       -1.3222390
 C        3.1199210        5.0556540       -0.7772170
 C        1.6533140        4.1739600       -2.6613580
 C        1.2204720        6.4250880       -1.6232100
 H        3.1544490        5.5783410        0.1914300
 H        3.7421860        5.6264940       -1.4823950
 H        3.5833240        4.0772190       -0.6508200
 H        0.6808110        4.2444320       -3.1695780
 H        1.8876910        3.1144950       -2.5301330
 H        2.4001840        4.6031740       -3.3458480
 H        0.2055510        6.4931040       -2.0353150
 H        1.9002940        6.8461210       -2.3784510
 H        1.2790380        7.0686540       -0.7356160
 C       -5.6687580        1.5059140       -3.9964880
 O       -6.7370840        0.9192630       -3.3110020
 O       -5.7070240        1.7580810       -5.2227320
 C       -7.9372840        0.5975360       -4.1142140
 H       -8.6380230        0.1523280       -3.3997270
 H       -8.3562000        1.5098930       -4.5605010
 H       -7.6845320       -0.1134310       -4.9126570
 C       -1.7585910        5.1049240        0.4919850
 C       -1.7982310        4.4939240        1.9207530
 C       -1.2674220        6.5802550        0.6331500
 C       -3.2043280        5.2023900       -0.0890420
 H       -2.6402870        4.9227570        2.4839120
 H       -0.8878980        4.7353480        2.4852800
 H       -1.9209750        3.4073590        1.9105120
 H       -1.3105640        7.1255330       -0.3183780
 H       -0.2482190        6.6566130        1.0312210
 H       -1.9288780        7.1017120        1.3406870
 H       -3.7944980        5.9062130        0.5165080
 H       -3.7351870        4.2487090       -0.0898440
 H       -3.1970690        5.5839400       -1.1214700
 H        0.5403490        3.1488830        2.5908250
 C        3.8529770        1.4684880       -0.4241420
 C        4.3373490       -0.0050120       -0.4801280
 H        4.7211080        2.1137540       -0.6451780
 H        3.1303710        1.6271550       -1.2275410
 H        4.6901890       -0.2362940       -1.4956720
 H        3.5264580       -0.7058830       -0.2416410
 H        5.1651820       -0.1963420        0.2176200
 C        4.5438650        1.8819720        4.5708830
 O        5.7812630        1.3151530        4.2477460
 O        4.2300730        2.1976580        5.7421810
 C        6.7133250        1.0861660        5.3725990
 H        7.6024450        0.6435660        4.9105270
 H        6.9585500        2.0354220        5.8687420
 H        6.2680400        0.3991500        6.1052510
