67
M00000497_2D_DFT last geometry from G09 out file
 Ru       -0.3305690       -0.1698540        0.4570560
 C       -1.8129460       -0.7809850       -0.3946600
 Cl       -1.1822400       -0.0701890        2.7153130
 Cl        1.3677200       -0.9114860       -1.0877230
 H       -2.5370850       -0.2404890       -1.0083050
 H       -1.9989790       -1.8685020       -0.2597510
 C       -0.2748760        1.7380070        0.0337500
 N        0.6815220        2.5803410        0.5887970
 N       -1.0523250        2.5178720       -0.8061510
 C        0.4975360        4.0104200        0.2033920
 C        1.8095450        2.2223300        1.4203390
 C       -0.5604730        3.9281260       -0.9109710
 H        0.1434830        4.5895630        1.0679930
 H       -0.1246630        4.0993630       -1.9050990
 C        1.7008460        2.3544080        2.8344310
 C        3.0549410        1.8173100        0.8375380
 C        2.8048890        1.9715800        3.6350500
 C        4.0128820        1.4910010        3.0886640
 H        2.7046030        2.0481440        4.7198060
 C        4.1228370        1.4360330        1.6827190
 H        5.0487680        1.0981670        1.2235950
 C       -2.2634700        2.1889360       -1.5110740
 C       -2.1961030        1.8250620       -2.8869560
 C       -3.5295410        2.2735890       -0.8574500
 C       -3.4065200        1.5610230       -3.5722730
 C       -4.6715690        1.6328740       -2.9451740
 H       -3.3532690        1.2770170       -4.6251160
 C       -4.7107830        1.9781600       -1.5767930
 H       -5.6643900        2.0193390       -1.0532500
 C       -0.8705770        1.6969580       -3.6180990
 H       -0.1128500        1.1920900       -3.0086630
 H       -0.4640120        2.6847800       -3.8886580
 H       -0.9957210        1.1298670       -4.5500470
 C       -3.6408860        2.6838280        0.5844090
 O       -4.6534930        1.9738210        1.2263110
 O       -2.9498580        3.5542420        1.1611650
 C       -4.8202220        2.2218110        2.6790700
 H       -5.6726520        1.5973830        2.9667790
 H       -3.9112230        1.9121890        3.2101060
 H       -5.0242870        3.2844560        2.8690340
 H        1.4455060        4.4216050       -0.1583180
 C       -5.9541170        1.3643670       -3.7230880
 C       -6.5579770        2.6428480       -4.3671000
 H       -6.7059170        0.9160170       -3.0543930
 H       -5.7586110        0.6265080       -4.5173650
 H       -5.8534280        3.1028950       -5.0762060
 H       -6.8051100        3.3948980       -3.6028680
 H       -7.4812430        2.3977600       -4.9147420
 H       -1.3918250        4.6214810       -0.7438570
 C        0.4742860        2.9342980        3.5178980
 H        0.2683900        2.4058230        4.4575300
 H       -0.4247710        2.8707180        2.9019010
 H        0.6502290        3.9953130        3.7663780
 C        3.3010800        1.8749720       -0.6447820
 O        4.3853600        1.0804760       -1.0136430
 O        2.6822290        2.5843350       -1.4725390
 C        4.6956840        1.0183970       -2.4570060
 H        3.8425640        0.5936570       -3.0017790
 H        4.9255850        2.0190020       -2.8492530
 H        5.5680600        0.3591930       -2.5228270
 C        5.1801400        1.0875200        3.9814280
 C        6.1558870        2.2578420        4.2843540
 H        5.7439580        0.2706260        3.5040040
 H        4.7961670        0.6901140        4.9343050
 H        6.5937270        2.6608970        3.3587520
 H        6.9799460        1.9147270        4.9292280
 H        5.6411120        3.0827240        4.7998890
