91
M00000498_2D_DFT last geometry from G09 out file
 Ru       -0.1455290        0.9405190        0.2549420
 C        1.4199790        0.5072390        1.0658770
 Cl        0.3341920        0.0436230       -1.9372670
 Cl       -1.5887210        0.9333290        2.1870910
 H        2.2724460        1.1421040        1.3153440
 H        1.5133600       -0.5679450        1.3318490
 C       -0.0543330        2.8821560       -0.0436620
 N        0.8768890        3.8235020        0.3563840
 N       -1.0833890        3.5554850       -0.7034570
 C        0.4092560        5.2542460        0.0959110
 C        2.0399820        3.6290290        1.1971670
 C       -0.8052330        5.0459090       -0.8507760
 H        0.0613830        5.6097570        1.0683440
 H       -0.4939040        5.1815660       -1.8894270
 C        1.9338430        3.6682680        2.6310150
 C        3.3118060        3.4338320        0.5747640
 C        3.1120490        3.5431670        3.4095080
 C        4.3739820        3.4253890        2.8021180
 H        3.0458350        3.5647150        4.4958960
 C        4.4627750        3.3653770        1.4029590
 H        5.4406310        3.2586870        0.9324830
 C       -2.1007210        2.9363820       -1.5496750
 C       -1.8134340        2.5873230       -2.9228520
 C       -3.4145890        2.7344820       -1.0159990
 C       -2.8458640        2.0155950       -3.7080120
 C       -4.1307410        1.8049320       -3.1876210
 H       -2.6472420        1.7347050       -4.7386040
 C       -4.4030030        2.1627770       -1.8608470
 H       -5.4039120        2.0023170       -1.4669100
 C       -0.4880790        2.8109790       -3.6224070
 C       -0.1913600        2.0560150       -4.9212410
 O        0.3689490        3.6377760       -3.2034710
 H       -0.7673600        2.4777940       -5.7610770
 H        0.8737900        2.1798240       -5.1458840
 H       -0.4222620        0.9877220       -4.8397750
 C       -3.8252150        3.1752660        0.3893940
 C       -4.8919260        2.3095070        1.1094350
 H       -2.9408610        3.2387370        1.0285530
 H       -4.2203670        4.2004170        0.3068530
 C       -5.1647280        2.8093110        2.5493620
 H       -5.8470210        2.3240540        0.5578550
 H       -4.5538560        1.2628360        1.1478130
 C       -6.2293450        1.9708590        3.2907810
 H       -5.4913200        3.8645190        2.5150240
 H       -4.2231700        2.7894560        3.1213010
 H       -5.9141420        0.9189100        3.3775560
 H       -7.1967790        1.9893740        2.7624440
 H       -6.3979030        2.3544150        4.3097740
 C        1.4581040        6.2526400       -0.4001590
 C        1.9247420        7.2313140        0.5129950
 C        1.9437530        6.2897790       -1.7315430
 C        2.8529760        8.2165330        0.1176910
 H        1.5523410        7.2288600        1.5392040
 C        3.3296580        8.2428960       -1.2099430
 H        3.1947510        8.9614750        0.8385780
 C        2.8691890        7.2756240       -2.1299030
 H        4.0436680        9.0066280       -1.5241030
 H        3.2295840        7.2887370       -3.1604330
 H        1.6120090        5.5518850       -2.4576030
 H       -4.9110860        1.3677310       -3.8120390
 C       -1.9690800        6.0045740       -0.5865730
 C       -2.5690680        6.6503870       -1.6956390
 C       -2.4357820        6.3265960        0.7130040
 C       -3.6083890        7.5880010       -1.5210560
 H       -2.2155080        6.4259260       -2.7041180
 C       -4.0623550        7.9022820       -0.2227670
 H       -4.0535920        8.0743300       -2.3909160
 C       -3.4702320        7.2669360        0.8911010
 H       -4.8613520        8.6323270       -0.0802810
 H       -3.8142490        7.5025760        1.8999580
 H       -2.0075010        5.8427990        1.5888780
 C        0.6344830        3.8528780        3.3933150
 C        0.4484100        3.0868630        4.7029610
 O       -0.2675280        4.6396930        2.9999100
 H       -0.6221610        3.0482350        4.9311230
 H        0.8467150        2.0665760        4.6452530
 H        0.9545810        3.6101290        5.5311400
 C        3.5043950        3.2904330       -0.9327440
 C        4.1373110        1.9411740       -1.3836560
 H        2.5516980        3.4107420       -1.4526060
 H        4.1593590        4.1095980       -1.2736420
 C        4.4011330        1.9015770       -2.9082480
 H        5.0873380        1.7641950       -0.8519230
 H        3.4619980        1.1145240       -1.1194000
 C        4.9760130        0.5505770       -3.3880050
 H        5.0975510        2.7151050       -3.1812090
 H        3.4578410        2.1047200       -3.4415400
 H        5.1581650        0.5600110       -4.4745290
 H        4.2772210       -0.2729410       -3.1726020
 H        5.9327070        0.3204950       -2.8910750
 H        5.2743460        3.3720430        3.4157150
