75
M00000499_2D_DFT last geometry from G09 out file
 Ru        0.2076190        0.3033810        0.0943480
 C       -1.1316620       -0.6104880       -0.7208700
 Cl       -0.5648720        0.2786840        2.3843440
 Cl        1.7515560        0.0003070       -1.7909130
 H       -1.9024780       -0.2963120       -1.4272660
 H       -1.0887850       -1.7015180       -0.5053450
 C       -0.0932320        2.2233310       -0.1470410
 N        0.7780330        3.1365320        0.4462100
 N       -1.0257480        2.9421670       -0.8676990
 C        0.5943310        4.5524300       -0.0809370
 C        1.8015330        2.7196310        1.3853970
 C       -0.8142160        4.4602280       -0.7823210
 H        0.5398680        5.2119480        0.7853890
 H       -0.7382400        4.8139230       -1.8129210
 C        1.8195910        3.1062380        2.7675990
 C        2.7992200        1.8262620        0.9187890
 C        2.8317230        2.5879050        3.6040930
 C        3.8111730        1.7135130        3.1023540
 H        2.8749150        2.8582900        4.6557330
 C        3.8010400        1.3125220        1.7568690
 H        4.5579400        0.6326010        1.3728570
 C       -2.1582640        2.3342070       -1.5263410
 C       -2.2700660        2.2328870       -2.9466120
 C       -3.1898440        1.7928920       -0.7158180
 C       -3.4275240        1.6424760       -3.5042890
 C       -4.4583660        1.1736870       -2.6720740
 H       -3.5461630        1.5567200       -4.5819350
 C       -4.3461980        1.2251960       -1.2692380
 H       -5.1400440        0.8316010       -0.6388980
 C       -1.2165560        2.7402860       -3.9249920
 C       -0.5635860        1.7201510       -4.8411510
 O       -0.9074790        3.9584460       -3.9536800
 H        0.0243090        2.2305230       -5.6127110
 H        0.1088400        1.0832930       -4.2420540
 H       -1.2964340        1.0498580       -5.3118730
 H       -3.0703030        1.8085820        0.3632880
 C        1.8116810        5.0818990       -0.9760170
 C        2.1893240        4.1290330       -2.1420410
 C        1.4459650        6.4722360       -1.5844000
 C        3.0624940        5.3212680       -0.0711790
 H        1.3953520        4.0684370       -2.8942220
 H        2.4172520        3.1134930       -1.8029720
 H        3.0866860        4.5144220       -2.6488740
 H        2.3044500        6.8358810       -2.1675850
 H        1.2359760        7.2192910       -0.8076230
 H        0.5911700        6.4282250       -2.2705900
 H        3.5309630        4.3906640        0.2642970
 H        2.8131800        5.9208640        0.8164380
 H        3.8229420        5.8735910       -0.6424870
 N       -5.6818310        0.5882190       -3.2916450
 O       -5.7477500        0.5486230       -4.5757650
 O       -6.6026130        0.1545740       -2.5064610
 C       -2.0074510        5.2905620       -0.1117420
 C       -2.4285710        4.7674620        1.2892630
 C       -1.5690980        6.7816380        0.0511010
 C       -3.2469420        5.3199400       -1.0639550
 H       -1.6477190        4.9398790        2.0359920
 H       -2.6718630        3.6998820        1.2892680
 H       -3.3261730        5.3077630        1.6253670
 H       -2.4070860        7.3457430        0.4857500
 H       -1.3262010        7.2457630       -0.9135660
 H       -0.7157610        6.9073870        0.7275820
 H       -3.7902810        4.3714110       -1.0957610
 H       -2.9605960        5.5870010       -2.0916660
 H       -3.9567430        6.0818220       -0.7097730
 C        0.8242770        4.0442920        3.4334650
 C        0.0784880        3.5273550        4.6535210
 O        0.6313030        5.2060650        2.9890240
 H       -0.5758700        4.3129460        5.0478660
 H       -0.5167380        2.6456410        4.3700650
 H        0.7635850        3.1956320        5.4473130
 H        2.8109120        1.5492520       -0.1308470
 N        4.8666630        1.2032720        4.0202390
 O        5.7339680        0.3838550        3.5418510
 O        4.8538270        1.6110390        5.2411800
