74
Mol_000230_2D_DFT last geometry from G09 out file
 Ru       -1.3288780        0.4474070        1.2074150
 C       -0.2312080        0.2261260        2.6370610
 Cl       -0.5582000       -1.4020920       -0.1333850
 Cl       -3.0841470        1.7860960        2.2172960
 H        0.7049360        0.7357020        2.8781030
 H       -0.5597550       -0.5636500        3.3471450
 C       -0.5645190        1.9431270        0.2328120
 N        0.3883260        2.8807870        0.6004220
 N       -1.0862690        2.3456140       -0.9975450
 C        0.5716730        3.9183000       -0.4528450
 C        1.4200720        2.7803070        1.6109950
 C       -0.7004430        3.7932030       -1.3318830
 H        1.4882670        3.7074110       -1.0296620
 H        0.6761750        4.9054550        0.0075780
 C       -0.4033570        4.0191470       -2.8362820
 C       -1.8397210        4.7617400       -0.8723550
 C       -0.1012000        5.5040300       -3.1636080
 H        0.4429700        3.3924720       -3.1463710
 H       -1.2781530        3.7022720       -3.4234050
 C       -1.2449090        6.4398610       -2.7122280
 H        0.8413960        5.8154240       -2.6811520
 H        0.0623900        5.5996640       -4.2496250
 C       -1.5551020        6.2460990       -1.2110690
 H       -2.1504150        6.2222240       -3.3049410
 H       -0.9781600        7.4900970       -2.9142910
 H       -2.4309110        6.8493630       -0.9208230
 H       -0.7105170        6.6261100       -0.6112570
 H       -2.0158600        4.6394360        0.2058570
 H       -2.7663620        4.4636270       -1.3828820
 C        1.3367130        3.5021090        2.8361380
 C        2.5635160        2.0008120        1.3040270
 C        2.4367320        3.3940110        3.7286830
 C        3.5735610        2.6198650        3.4280100
 H        2.3885470        3.9202080        4.6838860
 C        3.6396400        1.9145820        2.2062020
 H        4.5089890        1.3017640        1.9640960
 C       -2.1208710        1.6293310       -1.7364870
 C       -1.7947380        0.8143760       -2.8678220
 C       -3.4699210        1.7898650       -1.3325450
 C       -2.8761140        0.2181110       -3.5656550
 C       -4.2170630        0.3898420       -3.1708830
 H       -2.6635740       -0.4097160       -4.4293830
 C       -4.5181150        1.1711640       -2.0386350
 H       -5.5479080        1.2966330       -1.7015990
 H       -3.6906080        2.3781570       -0.4465550
 H       -5.0155320       -0.0948790       -3.7356370
 C        0.1285820        4.3415000        3.2343190
 C        0.3849340        5.8769450        3.2148390
 H       -0.7250220        4.1037220        2.5899010
 H       -0.1725650        4.0588280        4.2569630
 C       -0.8528170        6.6944400        3.6564440
 H        1.2342280        6.1190970        3.8757040
 H        0.6871320        6.1911240        2.2010570
 C       -0.6180840        8.2210880        3.6347850
 H       -1.1467480        6.3849060        4.6746170
 H       -1.7073930        6.4458730        3.0033180
 H       -1.5190400        8.7648960        3.9596050
 H       -0.3623550        8.5733550        2.6222500
 H        0.2063620        8.5091550        4.3066990
 H        2.5888360        1.4468500        0.3650370
 H        4.3962090        2.5586590        4.1425230
 C       -0.3576880        0.5760110       -3.3346250
 C       -0.0478290       -0.8297870       -3.9130790
 H       -0.1047940        1.3217230       -4.1087970
 H        0.3202800        0.7599480       -2.4922760
 C        1.4658920       -1.0380700       -4.1607320
 H       -0.4099110       -1.5981210       -3.2152910
 H       -0.5803090       -0.9792260       -4.8674090
 C        1.7972440       -2.4156820       -4.7764050
 H        2.0044530       -0.9314010       -3.2031570
 H        1.8460780       -0.2414930       -4.8263820
 H        2.8818100       -2.5331230       -4.9301600
 H        1.3045190       -2.5468710       -5.7535160
 H        1.4614260       -3.2331370       -4.1191460
