57
Mol_000074_2D_DFT last geometry from G09 out file
 Ru       -0.1174350        0.1348480        0.7939670
 C       -1.6623500       -0.5989370        0.1817650
 Cl       -0.6752110        0.5097720        3.1108910
 Cl        1.4480990       -0.6860750       -0.8381170
 H       -2.4704410       -0.1476590       -0.3984170
 H       -1.7858600       -1.6724590        0.4397930
 C       -0.1963920        1.9906190        0.2328780
 N        0.8835240        2.8403200        0.4526000
 N       -1.2082440        2.7570210       -0.3394600
 C        0.6130050        4.2752790        0.1145820
 C        2.1834140        2.4237000        0.9227830
 C        0.7142440        5.2284710        1.3473400
 C       -0.8004870        4.2024580       -0.5402050
 H        1.3485700        4.6088980       -0.6258470
 C       -0.5486200        5.2738690        2.1809280
 H        1.5889580        4.9518430        1.9509150
 H        0.9324930        6.2365700        0.9485470
 C       -1.7501350        5.2993280        1.5573580
 H       -0.4702220        5.2818290        3.2695650
 C       -1.7951720        5.2440110        0.0439160
 H       -2.6858780        5.3203440        2.1160310
 H       -2.8078850        5.0557960       -0.3281250
 H       -1.4971070        6.2216080       -0.3800130
 H       -0.7212990        4.3703910       -1.6261730
 C        2.3422780        2.0866280        2.2841320
 C        3.3302560        2.3685270        0.0728120
 C        3.5851480        1.6704760        2.7964490
 C        4.7258990        1.5972370        1.9665510
 H        3.6583490        1.4021550        3.8513820
 C        4.5735730        1.9661100        0.6101330
 H        5.4384940        1.9164980       -0.0491110
 C       -2.2172470        2.2363410       -1.2364020
 C       -1.7726210        1.8283140       -2.5200690
 C       -3.6112520        2.1708580       -0.9590490
 C       -2.6678460        1.3951840       -3.5090820
 C       -4.0623960        1.3588780       -3.2592020
 H       -2.2794610        1.0812530       -4.4795130
 C       -4.5047390        1.7462150       -1.9775790
 H       -5.5683350        1.6986450       -1.7499530
 H        1.4749060        2.1384970        2.9366330
 C        3.3331630        2.7704720       -1.3853630
 F        3.6142660        4.1792570       -1.5376920
 F        2.1297500        2.5656100       -2.0891890
 F        4.3343530        2.1188030       -2.1323800
 C        6.0646410        1.1158880        2.4948530
 H        6.1812550        0.0323190        2.3260090
 H        6.1592370        1.2902850        3.5755120
 H        6.9051670        1.6159920        1.9930820
 H       -0.7027410        1.8412030       -2.7242430
 C       -4.2582990        2.5049840        0.3694380
 F       -3.4136120        2.5019510        1.4784600
 F       -5.3118090        1.5990280        0.6747540
 F       -4.8868550        3.7970240        0.3448120
 C       -5.0394020        0.9080720       -4.3297390
 H       -4.8006030       -0.1073800       -4.6826790
 H       -4.9983860        1.5720330       -5.2079040
 H       -6.0741000        0.9014970       -3.9631630
