95
Mol_000301_2D_DFT last geometry from G09 out file
 Ru        0.2143780       -0.0565370       -0.7426780
 C       -1.3310570       -0.9352840       -1.0992370
 Cl        0.6031390       -0.9098900        1.4877250
 Cl        0.8251950        0.4017180       -3.0649550
 H       -2.3579150       -0.5672000       -1.1096600
 H       -1.1859920       -2.0065310       -1.3643840
 C       -0.2298210        1.8056180       -0.3688490
 N        0.8049600        2.6945310       -0.0704150
 N       -1.4068930        2.5152170       -0.5017420
 C        1.9657020        2.3496160        0.7559390
 C        0.3820990        4.1439740       -0.4257010
 C        3.2775560        2.0275580        0.2797020
 C        1.7564810        2.3777280        2.1595950
 C        4.2952490        1.8029870        1.2366400
 C        4.0956150        1.8618290        2.6452920
 H        5.2799100        1.5473380        0.8581720
 C        2.7704000        2.1475150        3.0916650
 H        2.5193910        2.1618030        4.1491960
 C       -1.2099790        4.0290530       -0.1879590
 C       -2.6384360        1.9616120       -1.0423110
 C       -3.6986140        1.4202320       -0.2465870
 C       -2.7728700        1.9416560       -2.4529920
 C       -4.8578790        0.9554400       -0.9127080
 C       -5.0214780        0.9757700       -2.3298710
 H       -5.6531550        0.5437490       -0.2985210
 C       -3.9205100        1.4672960       -3.0969900
 H       -3.9438930        1.4676120       -4.1836950
 N       -6.1965200        0.5201830       -2.9421550
 C       -6.3010080        0.4897920       -4.4079680
 C       -7.2971440       -0.0205610       -2.1339880
 H       -6.1771060        1.4949640       -4.8459220
 H       -7.2925930        0.1224050       -4.6966120
 H       -5.5482500       -0.1768390       -4.8655600
 H       -7.0040610       -0.9334480       -1.5839280
 H       -8.1378130       -0.2806210       -2.7876110
 H       -7.6630310        0.7172110       -1.3995410
 C        0.8175710        4.3244020       -1.9334690
 C        0.7340340        5.7025860       -2.6442370
 H        1.8688670        4.0196710       -1.9546530
 H        0.2937990        3.5743420       -2.5404140
 H        1.0988580        6.5318640       -2.0244680
 H       -0.2765330        5.9600550       -2.9805900
 H        1.3703420        5.6672480       -3.5433570
 C        1.0246570        5.2298800        0.4895500
 C        2.5187940        5.6024700        0.3343460
 H        0.4392960        6.1466660        0.3294180
 H        0.8705760        4.9447200        1.5348580
 H        2.7822490        5.9217150       -0.6808920
 H        3.1838050        4.7831430        0.6194820
 H        2.7344270        6.4491100        1.0065820
 C       -2.0174870        4.9518740       -1.1567620
 C       -3.5476870        5.1207690       -0.9786000
 H       -1.5682020        5.9515290       -1.0723640
 H       -1.8376560        4.6226450       -2.1854020
 H       -4.0972150        4.1870820       -1.1272260
 H       -3.9054430        5.8359820       -1.7373590
 H       -3.8250420        5.5279760        0.0014800
 C       -1.6895940        4.2310290        1.2987610
 C       -1.7842120        5.6451020        1.9373010
 H       -2.6995410        3.8150670        1.3201150
 H       -1.0877820        3.5870430        1.9532970
 H       -2.1853510        6.4015870        1.2512500
 H       -0.8253090        6.0164680        2.3142220
 H       -2.4696160        5.5945690        2.7989540
 C        3.6594720        1.8621030       -1.2037120
 C        4.2183450        0.4394970       -1.5009670
 C        4.6784150        2.9323390       -1.6922240
 H        2.7503860        1.9695280       -1.8036970
 H        5.2064400        0.2832720       -1.0422580
 H        4.3221210        0.3011680       -2.5870380
 H        3.5450800       -0.3435140       -1.1288330
 H        4.3090800        3.9553660       -1.5436170
 H        4.8744550        2.7958070       -2.7672750
 H        5.6406100        2.8461850       -1.1650560
 H        0.7505710        2.5601720        2.5318120
 N        5.1433030        1.6380300        3.5495410
 C        4.8747460        1.6029800        4.9937770
 C        6.4783050        1.2659870        3.0632840
 H        4.1737220        0.7942350        5.2691550
 H        4.4518870        2.5574420        5.3506350
 H        5.8124120        1.4342840        5.5362640
 H        6.8946990        2.0369030        2.3929900
 H        6.4730550        0.3049040        2.5170690
 H        7.1625690        1.1646700        3.9139120
 C       -3.6416100        1.2630820        1.2875230
 C       -3.6663910       -0.2255850        1.7427170
 C       -4.7785480        2.0486250        2.0053180
 H       -2.6824580        1.6670060        1.6293580
 H       -4.5837060       -0.7395120        1.4187890
 H       -3.6245270       -0.2765630        2.8419450
 H       -2.8013530       -0.7775460        1.3579180
 H       -4.8255520        3.0991720        1.6850950
 H       -4.6203310        2.0300410        3.0949530
 H       -5.7640100        1.6008310        1.8085040
 H       -1.9339510        2.2770020       -3.0594930
