107
Mol_000288_2D_DFT last geometry from G09 out file
 Ru       -0.0274590       -0.1140780        0.2021990
 C       -1.4460530       -0.9799240       -0.5269740
 Cl       -0.6138170       -0.2830790        2.5553860
 Cl        1.4424720       -0.4588370       -1.7021120
 H       -2.2992550       -0.5731230       -1.0730750
 H       -1.3966060       -2.0880060       -0.4402460
 C       -0.3971940        1.7909240       -0.0217700
 N        0.6077360        2.7220090        0.2238120
 N       -1.5648170        2.4688940       -0.3319520
 C        1.7854980        2.4002060        1.0344630
 C        0.1567660        4.1530710       -0.1833190
 C        3.1140950        2.2010900        0.5284150
 C        1.5846030        2.3168100        2.4361680
 C        4.1421060        1.9210370        1.4560510
 C        3.9408920        1.8272900        2.8658070
 H        5.1379530        1.7594860        1.0605960
 C        2.6133890        2.0387650        3.3409470
 H        2.3674170        1.9591390        4.3963790
 C       -1.4348690        3.9833160        0.0160490
 C       -2.6703430        1.9061040       -1.0890250
 C       -3.8774070        1.4020990       -0.5086680
 C       -2.5304780        1.8596610       -2.4981830
 C       -4.9009130        0.9571710       -1.3775020
 C       -4.7843090        0.9482390       -2.8003250
 H       -5.8138030        0.5862380       -0.9232520
 C       -3.5418320        1.3933400       -3.3469400
 H       -3.3550860        1.3724790       -4.4176210
 N       -5.8316080        0.5091790       -3.6207660
 C       -7.0810630        0.0096300       -3.0316150
 C       -5.6550970        0.4571500       -5.0788200
 H       -7.5694350        0.7738170       -2.4028950
 H       -6.9195390       -0.8903420       -2.4110170
 H       -7.7815620       -0.2576930       -3.8312260
 H       -4.8503050       -0.2388090       -5.3765650
 H       -5.4180400        1.4508470       -5.4959290
 H       -6.5843500        0.1140580       -5.5481250
 C        0.6072750        4.3318310       -1.6858230
 C        0.5024620        5.7027330       -2.4175420
 H        0.0993980        3.5689620       -2.2917470
 H        1.6631920        4.0529660       -1.7023460
 C        1.3675580        5.7176060       -3.7016270
 H        0.8275020        6.5257550       -1.7650540
 H       -0.5322810        5.9287280       -2.7021520
 H        2.4361520        5.5814450       -3.4718540
 H        1.0725720        4.9115380       -4.3924180
 H        1.2594220        6.6735660       -4.2383960
 C        0.7544340        5.2596730        0.7379210
 C        2.2414890        5.6842440        0.6004450
 H        0.6016660        4.9636810        1.7813480
 H        0.1432540        6.1602810        0.5771560
 C        2.5628870        6.8873200        1.5186920
 H        2.4841670        5.9602120       -0.4345240
 H        2.9021370        4.8538290        0.8707690
 H        2.3772560        6.6446610        2.5772440
 H        3.6212180        7.1777980        1.4261720
 H        1.9512550        7.7685920        1.2641420
 C       -2.2575310        4.9019820       -0.9391060
 C       -3.8003860        5.0077010       -0.7958220
 H       -2.0488690        4.6111060       -1.9740950
 H       -1.8517330        5.9169890       -0.8151540
 C       -4.3805520        6.0448400       -1.7867800
 H       -4.0854320        5.3024690        0.2230870
 H       -4.2726440        4.0383160       -0.9875210
 H       -4.1622580        5.7681920       -2.8306410
 H       -5.4749410        6.1142250       -1.6839220
 H       -3.9647710        7.0508910       -1.6124070
 C       -1.9368200        4.1155210        1.5070850
 C       -2.1130070        5.5019370        2.1954800
 H       -1.3048270        3.4840300        2.1451360
 H       -2.9223000        3.6413660        1.5150090
 C       -3.0176530        5.3920160        3.4471110
 H       -2.5531590        6.2363630        1.5056510
 H       -1.1478640        5.9174860        2.5094460
 H       -4.0353760        5.0624990        3.1838850
 H       -2.6117030        4.6677300        4.1712110
 H       -3.1022370        6.3640030        3.9586890
 C        3.4769400        2.3307970       -0.9532000
 C        4.6826440        1.5027030       -1.4656800
 H        3.6913420        3.3938650       -1.1657030
 H        2.6052020        2.0528170       -1.5530630
 C        4.8538630        1.6234620       -2.9968730
 H        4.5350660        0.4453480       -1.1998320
 H        5.6184080        1.8336230       -0.9844220
 H        5.0090280        2.6710150       -3.3055400
 H        5.7236970        1.0421760       -3.3418980
 H        3.9658810        1.2412810       -3.5221630
 H        0.5780350        2.4360290        2.8264790
 N        4.9967830        1.5377350        3.7394260
 C        4.7417300        1.3918390        5.1794680
 C        6.3415360        1.2588120        3.2181140
 H        5.6833280        1.1778920        5.6984600
 H        4.0407640        0.5657310        5.3950680
 H        4.3236610        2.3157530        5.6145100
 H        6.7513040        2.1193220        2.6613580
 H        6.3532240        0.3814770        2.5468180
 H        7.0215100        1.0508380        4.0524490
 C       -4.1010640        1.3143630        1.0038390
 C       -4.7775290        0.0184900        1.5293480
 H       -4.7232350        2.1699260        1.3248290
 H       -3.1378060        1.4127960        1.5132370
 C       -4.8828600        0.0059320        3.0710470
 H       -4.1939580       -0.8554370        1.2005540
 H       -5.7888840       -0.0947720        1.1056980
 H       -5.4734440        0.8604330        3.4413740
 H       -5.3730680       -0.9158040        3.4223770
 H       -3.8859660        0.0520420        3.5326940
 H       -1.5872700        2.1773760       -2.9400710
