99
Mol_000285_2D_DFT last geometry from G09 out file
 Ru        0.4793030       -0.1974960       -0.4784400
 C       -0.6180470       -0.9677060       -1.7033570
 Cl       -0.4763140       -1.1496130        1.5234500
 Cl        2.3849430        0.1200280       -1.9785790
 H       -1.4404870       -0.5347350       -2.2763970
 H       -0.3965920       -2.0402140       -1.8963170
 C       -0.1090300        1.6703880       -0.3133470
 N        0.5480320        2.5305780        0.5663060
 N       -1.0386850        2.4186590       -1.0247140
 C        1.5480470        2.0697460        1.5267990
 C        0.3837720        3.9943460        0.0894470
 C        2.8139320        1.6697680        1.0296310
 C        1.3242920        2.0324920        2.9417910
 C        3.8377100        1.2042720        1.8704740
 C        3.6425910        1.1420550        3.2684090
 H        4.7791580        0.8888490        1.4203810
 C        2.3907490        1.5722640        3.7616240
 H        2.2097410        1.5227670        4.8359770
 C       -1.1179840        3.8804440       -0.4702060
 C       -2.1315400        1.8196950       -1.7755650
 C       -3.1306710        1.1449680       -1.0258120
 C       -2.2687640        1.8934740       -3.1974880
 C       -4.2614110        0.5746610       -1.6289600
 C       -4.4432780        0.6594000       -3.0310160
 H       -4.9899390        0.0603710       -1.0018490
 C       -3.4360340        1.3130290       -3.7731810
 H       -3.5319310        1.3501190       -4.8587100
 C       -5.6623230        0.0518210       -3.7370270
 C       -6.9905250        0.7190430       -3.2815740
 C       -5.7219330       -1.4929790       -3.5726630
 H       -5.5512940        0.2569590       -4.8152250
 H       -7.1909780        0.5371760       -2.2150960
 H       -7.8384700        0.3135910       -3.8550420
 H       -6.9627970        1.8079220       -3.4386730
 H       -4.7976970       -1.9665760       -3.9363550
 H       -6.5652280       -1.9067170       -4.1470530
 H       -5.8584100       -1.7847610       -2.5206620
 C        1.4904370        4.2020620       -1.0206780
 C        1.7203820        5.5942950       -1.6697860
 H        2.4327560        3.9168100       -0.5362880
 H        1.3289450        3.4682550       -1.8182510
 H        1.6657050        6.4246460       -0.9543490
 H        1.0177180        5.8078210       -2.4824710
 H        2.7304310        5.6112300       -2.1095740
 C        0.5336940        5.0377760        1.2353670
 C        1.9504010        5.4043730        1.7469570
 H        0.0628850        5.9660340        0.8808770
 H       -0.0565550        4.7036290        2.0902840
 H        2.5818200        5.8596700        0.9750700
 H        2.4913720        4.5454890        2.1563980
 H        1.8451520        6.1444370        2.5566760
 C       -1.4254820        4.9261370       -1.5872210
 C       -2.8914690        5.1547750       -2.0354500
 H       -1.0439560        5.8928210       -1.2287890
 H       -0.8334310        4.6715510       -2.4696970
 H       -3.5181910        5.5809980       -1.2434970
 H       -3.3790380        4.2424950       -2.3917040
 H       -2.8893920        5.8741630       -2.8696670
 C       -2.2402680        3.8788610        0.6337080
 C       -2.6555980        5.1997730        1.3425810
 H       -3.1355780        3.4939260        0.1308400
 H       -1.9774390        3.1417840        1.3992760
 H       -2.6097680        6.0801950        0.6899740
 H       -2.0490060        5.4120400        2.2291670
 H       -3.6977070        5.1044480        1.6864950
 H        2.9928170        1.7087530       -0.0394680
 C        0.0809640        2.4456370        3.6883360
 C       -1.1470840        1.7462660        3.5759450
 C        0.1718100        3.4855570        4.6542930
 C       -2.2464530        2.0846010        4.3942350
 H       -1.2253270        0.9111950        2.8855170
 C       -2.1482360        3.1283660        5.3387570
 H       -3.1747000        1.5171590        4.3012660
 C       -0.9294510        3.8298960        5.4646020
 H       -2.9998650        3.3834560        5.9722500
 H       -0.8324690        4.6356560        6.1949760
 H        1.1110090        4.0291030        4.7690270
 C        4.7171510        0.6132420        4.2263540
 C        6.0256060        1.4494970        4.1665760
 C        4.9996600       -0.8975270        3.9888440
 H        4.3184900        0.7093480        5.2505090
 H        6.5066450        1.3818120        3.1793930
 H        6.7466170        1.0845500        4.9145080
 H        5.8285980        2.5123700        4.3738590
 H        5.7155280       -1.2757980        4.7352430
 H        5.4273360       -1.0763830        2.9910270
 H        4.0759550       -1.4896420        4.0688710
 H       -2.9947200        1.0494070        0.0490420
 C       -1.2836690        2.4994760       -4.1567920
 C        0.0807080        2.1136080       -4.1741690
 C       -1.7342030        3.4093920       -5.1528390
 C        0.9633960        2.6236800       -5.1490210
 H        0.4591410        1.3997860       -3.4492030
 C        0.5057620        3.5325580       -6.1268080
 H        2.0045990        2.2975910       -5.1427850
 C       -0.8510430        3.9248400       -6.1225540
 H        1.1907270        3.9241670       -6.8810970
 H       -1.2212950        4.6276740       -6.8714820
 H       -2.7776310        3.7278290       -5.1595400
