95
Mol_000286_2D_DFT last geometry from G09 out file
 Ru        0.5988530       -0.1591450       -0.6991670
 C       -0.5295230       -0.9206690       -1.9015010
 Cl       -0.2360450       -1.2018910        1.3129420
 Cl        2.4080750        0.3207380       -2.2818560
 H       -1.4082570       -0.5027840       -2.3975390
 H       -0.2690430       -1.9701840       -2.1625390
 C       -0.0377660        1.6799010       -0.4315560
 N        0.6405040        2.5247090        0.4442310
 N       -1.0243380        2.4231690       -1.0687240
 C        1.6267950        2.0530730        1.4128880
 C        0.3919970        4.0019910        0.0517540
 C        2.8532070        1.5395560        0.9250180
 C        1.4285640        2.0846720        2.8376760
 C        3.8705960        1.0686640        1.7704980
 C        3.7111540        1.1145520        3.1731790
 H        4.7831630        0.6778890        1.3202550
 C        2.4900180        1.6254630        3.6633590
 H        2.3371010        1.6395270        4.7423460
 C       -1.1368920        3.8574340       -0.4319640
 C       -2.1354100        1.8216490       -1.7894820
 C       -3.0560950        1.0580620       -1.0291500
 C       -2.3798560        1.9901080       -3.1994070
 C       -4.2239540        0.5063400       -1.5784210
 C       -4.5178620        0.7032940       -2.9492580
 H       -4.8914670       -0.0680760       -0.9367410
 C       -3.5852830        1.4271640       -3.7209460
 H       -3.7836440        1.5365580       -4.7855500
 C       -5.7820640        0.1292040       -3.6041720
 C       -7.0779590        0.7382430       -2.9986230
 C       -5.8136680       -1.4241540       -3.5536670
 H       -5.7591620        0.4160310       -4.6694120
 H       -7.1911690        0.4736610       -1.9367580
 H       -7.9644920        0.3635930       -3.5338490
 H       -7.0731210        1.8362140       -3.0734740
 H       -4.9151500       -1.8542690       -4.0212150
 H       -6.6948570       -1.8078230       -4.0912640
 H       -5.8644810       -1.7954990       -2.5194270
 C        1.3269790        4.3779750       -1.1646020
 C        2.8364260        4.5974610       -0.9056400
 H        1.2181960        3.6068030       -1.9340200
 H        0.9418000        5.3079000       -1.6027310
 H        3.0351750        5.4471390       -0.2383800
 H        3.3271950        4.8187210       -1.8671390
 H        3.3315700        3.7176760       -0.4869480
 C        0.6792690        4.9330900        1.2614000
 C        0.5481520        6.4605630        1.0519340
 H        0.0657550        4.6156650        2.1047560
 H        1.7166190        4.7334030        1.5644290
 H       -0.4827900        6.7798540        0.8601300
 H        1.1757010        6.8342820        0.2321810
 H        0.8781350        6.9726800        1.9701470
 C       -1.5583170        4.9328500       -1.4887850
 C       -3.0584120        5.1099390       -1.8383960
 H       -1.1936460        5.9035020       -1.1259300
 H       -1.0262250        4.7248840       -2.4216070
 H       -3.5217360        4.1893010       -2.2034200
 H       -3.1394550        5.8610910       -2.6410270
 H       -3.6578310        5.4746710       -0.9959580
 C       -2.1834750        3.7316360        0.7341830
 C       -2.6265900        4.9749200        1.5504430
 H       -3.0885930        3.3169500        0.2739270
 H       -1.8155530        2.9775840        1.4358110
 H       -1.8903520        5.2787820        2.3014370
 H       -3.5526120        4.7221110        2.0921500
 H       -2.8485290        5.8497330        0.9281300
 H        3.0180810        1.5194420       -0.1478140
 N        0.2140370        2.5658960        3.4599930
 C       -0.8832350        1.5755890        3.5875850
 C        0.3752700        3.3714460        4.6893230
 H       -1.8258410        2.1003570        3.8076860
 H       -0.6958990        0.8490850        4.4056080
 H       -0.9926130        1.0022540        2.6657140
 H        0.5730950        2.7734020        5.6039260
 H       -0.5559170        3.9326430        4.8669600
 H        1.1934710        4.0929250        4.5670350
 C        4.7887110        0.6073590        4.1402090
 C        6.1103430        1.4171090        4.0220360
 C        5.0435490       -0.9171210        3.9722510
 H        4.4081180        0.7594710        5.1647730
 H        6.5718630        1.2956840        3.0307330
 H        6.8382240        1.0748570        4.7742550
 H        5.9340380        2.4916890        4.1821770
 H        4.1112730       -1.4892660        4.0898080
 H        5.7622520       -1.2718530        4.7275900
 H        5.4565340       -1.1509130        2.9797430
 H       -2.8333190        0.8887510        0.0221730
 N       -1.5144680        2.7130140       -4.0675790
 C       -0.1136540        2.2664760       -4.2302070
 C       -2.0673920        3.2950780       -5.3022820
 H        0.2740180        1.8323770       -3.3120390
 H        0.5242140        3.1181800       -4.5114410
 H       -0.0259270        1.4990200       -5.0255830
 H       -2.1877580        2.5619900       -6.1271560
 H       -1.3768610        4.0746660       -5.6585360
 H       -3.0395320        3.7657610       -5.1091990
