83
Mol_000289_2D_DFT last geometry from G09 out file
 Ru        0.1874280       -0.2496850       -0.2941780
 C       -1.4756420       -0.9065930       -0.6112410
 Cl        0.3957990       -1.0047110        1.9985260
 Cl        1.0376850       -0.4883660       -2.5484600
 H       -2.4293220       -0.3787920       -0.6761400
 H       -1.5120270       -2.0073410       -0.7576830
 C        0.0001290        1.7147120       -0.1758640
 N        1.0742730        2.5164890        0.2266540
 N       -1.0663940        2.5421130       -0.5223240
 C        2.2268540        2.0375690        1.0122580
 C        0.8549580        3.9996280       -0.1897080
 C        3.5253020        1.7405710        0.4505060
 C        2.0590590        1.9045040        2.4359550
 C        4.5647700        1.2965230        1.3071680
 C        4.3890080        1.1587180        2.6900250
 H        5.5326120        1.0591000        0.8662570
 C        3.1382460        1.4691960        3.2399820
 H        2.9771600        1.3599220        4.3131450
 C       -0.7682810        4.0463510       -0.2286520
 C       -2.3078680        2.0978970       -1.1625000
 C       -3.5367300        1.9024730       -0.4099370
 C       -2.3265500        1.9020610       -2.5814920
 C       -4.7201240        1.5589230       -1.1221540
 C       -4.7287400        1.3875110       -2.5140070
 H       -5.6400100        1.3919910       -0.5664370
 C       -3.5351190        1.5428190       -3.2315790
 H       -3.5241790        1.3955110       -4.3121290
 H       -5.6526100        1.1111040       -3.0252510
 C        1.5439130        4.1501960       -1.5989690
 C        1.8029940        5.5462040       -2.2246390
 H        2.4979780        3.6267380       -1.5072270
 H        0.9834400        3.5482910       -2.3208750
 H        2.3134620        6.2408350       -1.5460490
 H        0.8953160        6.0453510       -2.5832810
 H        2.4602180        5.4125940       -3.0995800
 C        1.4094010        5.0338890        0.8410380
 C        2.9285140        5.2529420        1.0439210
 H        0.9888370        6.0005790        0.5304670
 H        0.9805420        4.8183210        1.8230310
 H        3.4559260        5.4972690        0.1158810
 H        3.4254490        4.3955860        1.5058700
 H        3.0602600        6.1105060        1.7241750
 C       -1.2858790        5.0110970       -1.3463380
 C       -2.8027100        5.2859890       -1.5171370
 H       -0.8070390        5.9772490       -1.1334920
 H       -0.8960330        4.6885960       -2.3144930
 H       -2.9222500        6.1331220       -2.2126670
 H       -3.3021910        5.5634060       -0.5816590
 H       -3.3418050        4.4367390       -1.9446990
 C       -1.4682480        4.4013280        1.1394830
 C       -1.5911690        5.8710700        1.6291490
 H       -2.4811220        4.0005190        1.0491390
 H       -1.0041940        3.8131370        1.9349900
 H       -2.3280240        5.8975250        2.4491540
 H       -1.9533140        6.5590640        0.8554790
 H       -0.6583960        6.2853220        2.0279950
 N        3.8673430        1.8887830       -0.9668080
 C        4.9438910        2.8824180       -1.2295290
 C        4.1941320        0.6038440       -1.6437740
 H        5.9537400        2.5376320       -0.9211590
 H        4.7393500        3.8244760       -0.7130760
 H        4.9796460        3.0793420       -2.3121310
 H        4.1916290        0.7647800       -2.7312040
 H        3.4367730       -0.1489220       -1.4231780
 H        5.1909370        0.2064560       -1.3548310
 C        0.7730280        2.2208880        3.1796000
 H       -0.1141410        2.0105070        2.5875380
 H        0.7462740        3.2768480        3.4934080
 H        0.7082510        1.6090950        4.0875420
 H        5.2069140        0.8120980        3.3238390
 N       -3.6489880        2.0851820        1.0048830
 C       -4.9465040        2.5167710        1.5553710
 C       -2.9218170        1.1896840        1.9269630
 H       -4.7717870        2.9664410        2.5454340
 H       -5.6728630        1.6896830        1.6963270
 H       -5.4066470        3.2774120        0.9118280
 H       -2.7686350        1.6936320        2.8932080
 H       -1.9510020        0.9078020        1.5260750
 H       -3.4886970        0.2560080        2.1196500
 C       -1.1272050        2.1021480       -3.4928460
 H       -1.1450930        3.1079130       -3.9433710
 H       -1.1621640        1.3798280       -4.3184190
 H       -0.1740260        1.9544860       -2.9911470
