97
Mol_000334_2D_DFT last geometry from G09 out file
 Ru        0.0948090        0.4089760       -0.3762230
 C       -1.1047520       -0.3128130       -1.5318230
 Cl       -0.9788890       -0.0556610        1.7390840
 Cl        1.9042060        0.4511960       -2.0342470
 H       -1.7693700        0.1629140       -2.2556640
 H       -1.0871970       -1.4255230       -1.5405120
 C       -0.2358980        2.3327170       -0.3146610
 N        0.5553900        3.1306610        0.5051440
 N       -1.1227880        3.1548020       -0.9845350
 C        0.3597270        4.6090790        0.2572690
 C        1.4934640        2.5717680        1.4766320
 C       -0.9457550        4.6308240       -0.6394560
 H        0.1544720        5.0861790        1.2219890
 H       -0.7237840        5.1544350       -1.5776370
 C        1.2823430        2.6590850        2.8869490
 C        2.6421540        1.9024470        0.9821930
 C        2.2619440        2.0851970        3.7303850
 C        3.4086550        1.4235310        3.2396710
 H        2.1180670        2.1205320        4.8098750
 C        3.5875030        1.3226690        1.8413430
 H        4.4529410        0.8078520        1.4310210
 C       -2.1848480        2.6750260       -1.8492520
 C       -2.1778080        2.8869980       -3.2593100
 C       -3.2730550        1.9946510       -1.2414710
 C       -3.3248740        2.4833020       -3.9864440
 C       -4.4273590        1.8444370       -3.3779050
 H       -3.3663190        2.6588930       -5.0606330
 C       -4.3825310        1.5754470       -1.9871250
 H       -5.2060660        1.0556880       -1.5033660
 C       -1.0046590        3.4849890       -4.0283040
 C       -0.3544330        2.4961960       -5.0417970
 H       -1.3479540        4.3766830       -4.5820570
 H       -0.2262230        3.8124350       -3.3342520
 C        0.7962360        3.1399650       -5.8516350
 H        0.0335150        1.6240310       -4.4944380
 H       -1.1196060        2.1227370       -5.7414430
 C        1.4500580        2.1596260       -6.8506460
 H        1.5685870        3.5125590       -5.1566370
 H        0.4142040        4.0206280       -6.3992440
 H        2.2655650        2.6467250       -7.4082730
 H        0.7175720        1.7879250       -7.5851620
 H        1.8742020        1.2884720       -6.3275800
 H       -3.2284340        1.7760680       -0.1778440
 C        1.6476010        5.3561400       -0.3460540
 C        2.2098690        4.6620400       -1.6172420
 C        1.3026260        6.8308040       -0.7212640
 C        2.7704530        5.4467410        0.7356370
 H        1.5332200        4.7684170       -2.4748990
 H        2.4011870        3.5952850       -1.4713650
 H        3.1613910        5.1360880       -1.9003810
 H        0.9889400        7.4179010        0.1517910
 H        0.5237190        6.9080000       -1.4899100
 H        2.2048920        7.3087450       -1.1301480
 H        3.2311140        4.4811590        0.9569150
 H        2.3920420        5.8688720        1.6789230
 H        3.5673560        6.1139080        0.3749720
 C       -5.5896790        1.4640960       -4.2392990
 O       -6.5889750        0.8117440       -3.5118660
 O       -5.6824730        1.6898970       -5.4683910
 C       -7.7837740        0.3822070       -4.2710850
 H       -8.4263050       -0.1001360       -3.5266830
 H       -8.2849840        1.2501370       -4.7211730
 H       -7.5006250       -0.3242330       -5.0633960
 C       -2.2352710        5.3728050       -0.0344350
 C       -2.8581970        4.6431590        1.1868000
 C       -1.8604940        6.8168610        0.4262380
 C       -3.3233920        5.5622190       -1.1408040
 H       -2.2223110        4.7239810        2.0749780
 H       -3.0433260        3.5825120        0.9979240
 H       -3.8226900        5.1088930        1.4380980
 H       -2.7590030        7.2929480        0.8454850
 H       -1.5187020        7.4422250       -0.4081630
 H       -1.0935220        6.8340660        1.2098170
 H       -3.8384270        4.6352120       -1.4019490
 H       -2.8945880        5.9884610       -2.0606880
 H       -4.0861580        6.2677840       -0.7789850
 C        0.0509440        3.2565050        3.5566050
 C        0.3158230        4.5600460        4.3662770
 H       -0.7381280        3.4221200        2.8193530
 H       -0.3460510        2.4988130        4.2510740
 C       -0.8960670        4.9986710        5.2240980
 H        1.1824980        4.4083510        5.0298390
 H        0.5964150        5.3790040        3.6820860
 C       -0.6466440        6.3064350        6.0078270
 H       -1.1443230        4.1905890        5.9339870
 H       -1.7841450        5.1240750        4.5809010
 H       -1.5244760        6.5787490        6.6146120
 H       -0.4360150        7.1479920        5.3280860
 H        0.2125070        6.2054070        6.6899500
 H        2.8014670        1.8387270       -0.0887500
 C        4.3732180        0.8491410        4.2274010
 O        5.4434000        0.2052100        3.6001700
 O        4.2632820        0.9244200        5.4736100
 C        6.4543930       -0.4097180        4.4868740
 H        7.1938960       -0.8430840        3.8048880
 H        6.9128930        0.3510390        5.1337180
 H        5.9934850       -1.1868750        5.1119150
