77
Mol_000333_2D_DFT last geometry from G09 out file
 Ru        0.0812290        0.0221740        0.4129380
 C       -1.1268130       -0.7938360       -0.6699900
 Cl       -1.1418640        0.3326530        2.4790280
 Cl        2.0101280       -0.6468730       -0.9245610
 H       -1.6342050       -0.3932980       -1.5520530
 H       -1.2978100       -1.8704140       -0.4491670
 C       -0.0231120        1.8980110       -0.0927650
 N        1.0096000        2.7584380        0.2563520
 N       -0.9954380        2.6383580       -0.7395000
 C        0.8496060        4.1250350       -0.3635190
 C        1.9352110        2.4842710        1.3501860
 C       -0.6614220        4.1175290       -0.7933310
 H        1.0207740        4.8659860        0.4262760
 H       -0.7525350        4.4276490       -1.8408330
 C        1.6223760        2.9147980        2.6626210
 C        3.1577560        1.8031530        1.1546160
 C        2.4949860        2.6871470        3.7363100
 C        3.7346900        1.9967610        3.5502350
 H        2.1896590        3.0229720        4.7243790
 C        4.0342420        1.5571010        2.2228430
 H        4.9464180        1.0041270        2.0130760
 C       -2.1712520        2.1130140       -1.3956750
 C       -2.2749840        2.1282140       -2.8044040
 C       -3.2559720        1.5923640       -0.6526510
 C       -3.4270910        1.6579550       -3.4577490
 C       -4.5370810        1.1374630       -2.7187140
 H       -3.4494750        1.6868690       -4.5445320
 C       -4.4085890        1.1112480       -1.2925110
 H       -5.2066090        0.7112040       -0.6717460
 H       -1.4426090        2.4935850       -3.4064700
 H       -3.1873790        1.5409920        0.4322080
 C        1.8977890        4.4454530       -1.5271380
 C        1.9321190        3.3296000       -2.6082220
 C        1.5466980        5.8028540       -2.2121830
 C        3.3229490        4.6196570       -0.9192160
 H        0.9738150        3.2416270       -3.1402710
 H        2.1690740        2.3493240       -2.1790530
 H        2.7005560        3.5641550       -3.3605650
 H        2.3146510        6.0308970       -2.9662950
 H        1.5353410        6.6336610       -1.4928490
 H        0.5805010        5.7870630       -2.7343140
 H        3.7188370        3.6892230       -0.5060660
 H        3.3294170        5.3746780       -0.1171680
 H        4.0204470        4.9599750       -1.6996090
 N       -5.6913090        0.6712770       -3.3596240
 C       -6.8029780        0.1171490       -2.5741330
 C       -5.7813500        0.6827430       -4.8260630
 H       -7.6114480       -0.1876190       -3.2484970
 H       -7.2168100        0.8593900       -1.8697260
 H       -6.4972660       -0.7708590       -1.9929820
 H       -5.6804890        1.7032770       -5.2346470
 H       -6.7591810        0.2967220       -5.1359920
 H       -5.0065850        0.0495430       -5.2942020
 C       -1.6446660        5.0717130        0.0328460
 C       -1.8060250        4.6302430        1.5129960
 C       -1.1008800        6.5350670        0.0076980
 C       -3.0497780        5.1259190       -0.6458060
 H       -0.8785180        4.7756430        2.0820450
 H       -2.0990990        3.5780830        1.6050010
 H       -2.5825720        5.2402130        1.9988260
 H       -1.7974150        7.1830410        0.5602560
 H       -1.0286350        6.9277000       -1.0163110
 H       -0.1183220        6.6393770        0.4860680
 H       -3.6064130        4.1915500       -0.5410660
 H       -2.9715030        5.3546230       -1.7199750
 H       -3.6496150        5.9234060       -0.1811210
 H        0.6708470        3.4019910        2.8605450
 H        3.4115030        1.4251360        0.1688310
 N        4.6067310        1.7550660        4.6183230
 C        4.2350370        2.1522390        5.9834630
 C        5.8381470        0.9812310        4.4068970
 H        4.0669560        3.2401120        6.0590210
 H        5.0469210        1.8945840        6.6735200
 H        3.3199740        1.6399340        6.3313460
 H        6.3876920        0.9021190        5.3520890
 H        6.5034340        1.4682350        3.6737550
 H        5.6294850       -0.0433680        4.0502730
