49
Mol_000184_2D_DFT last geometry from G09 out file
 Ru       -0.5148290        0.1996980        0.9721300
 C       -1.1099580       -0.6493700       -0.5325990
 Cl       -2.5935300        0.6818930        2.1235750
 Cl        1.6778000       -0.8598410        0.9113950
 H       -1.0314180       -0.2834150       -1.5643550
 H       -1.5055290       -1.6788950       -0.4223780
 C       -0.2255450        1.9442480        0.2208710
 N        0.8173030        2.7912730        0.6193160
 N       -1.0200040        2.6931440       -0.6466520
 C        0.6781270        4.1991940        0.1165890
 C        2.1108060        2.4013920        1.1178080
 C        0.6092840        5.2401660        1.2760760
 C       -0.6095710        4.1359290       -0.7565960
 H        1.5481890        4.4380250       -0.5111800
 C       -0.7370920        5.2378280        1.9706250
 H        1.4319070        5.0605800        1.9813550
 H        0.8038850        6.2324270        0.8282420
 C       -1.8609610        5.1764150        1.2164920
 H       -0.7782510        5.2562090        3.0607610
 C       -1.7286920        5.1191690       -0.2918140
 H       -2.8528840        5.1465330        1.6699300
 H       -2.6789670        4.8558810       -0.7741770
 H       -1.4537230        6.1151670       -0.6858270
 H       -0.3660100        4.3624990       -1.8040380
 C        2.3934570        2.1229730        2.4803910
 C        3.2057020        2.4258010        0.2214660
 C        3.7097490        1.9040150        2.9387040
 C        4.7769810        1.9356520        2.0270740
 H        3.8741350        1.6921140        3.9935330
 C        4.5200480        2.1885350        0.6617180
 H        5.3372770        2.1865670       -0.0602530
 C       -2.0986450        2.2365060       -1.4793340
 C       -1.9670640        2.1630840       -2.8997480
 C       -3.3727570        1.9729470       -0.9303440
 C       -3.0640550        1.8486340       -3.7302020
 C       -4.3144570        1.5630770       -3.1535960
 H       -2.9201490        1.8189430       -4.8085070
 C       -4.4624380        1.6180410       -1.7514920
 H       -5.4258250        1.3978010       -1.2905080
 N        1.3193740        2.0006370        3.4798790
 O        0.2399850        1.3677140        3.1556580
 O        1.5149510        2.5051070        4.6456100
 H        3.0109410        2.6022230       -0.8359520
 H        5.7927040        1.7470070        2.3744640
 N       -0.6683480        2.3821750       -3.5931170
 O        0.4126470        1.9658010       -3.0316210
 O       -0.6981870        2.9607510       -4.7444800
 H       -3.4884030        2.0244470        0.1488050
 H       -5.1585590        1.3017980       -3.7919950
