103
M00000201_2D_DFT last geometry from G09 out file
 Ru        0.1832990        0.3084460       -0.6491250
 C       -1.4091270       -0.5082060       -0.9396060
 Cl        0.5687030       -0.3725030        1.6372350
 Cl        0.8125060        0.4710550       -2.9888130
 H       -2.4104440       -0.0872820       -1.0361940
 H       -1.3181970       -1.6080120       -1.0812370
 C       -0.1319180        2.2185960       -0.4040260
 N        0.9665960        3.0552800       -0.1600840
 N       -1.2578890        3.0074300       -0.5584850
 C        0.6166850        4.5297100       -0.3646880
 C        2.0909610        2.6668090        0.6986430
 C       -0.9538900        4.5091610       -0.5262020
 H        0.8850820        5.0555680        0.5601650
 H       -1.2021290        4.8847280       -1.5257510
 C        1.9346900        2.8703190        2.0959060
 C        3.3531760        2.1401900        0.2798020
 C        2.9109710        2.6454020        3.0619010
 C        4.1736030        2.1656920        2.6469830
 H        2.6659670        2.8252290        4.1068220
 C        4.3502920        1.9255690        1.2704740
 H        5.3179600        1.5515210        0.9372500
 C       -2.5317110        2.5193540       -1.0477020
 C       -2.8575070        2.7025270       -2.4129350
 C       -3.5198720        1.8955140       -0.2211750
 C       -4.0710110        2.3319670       -2.9952870
 C       -5.0607490        1.7332030       -2.1833280
 H       -4.2168510        2.5104730       -4.0588930
 C       -4.7547600        1.5309780       -0.8181170
 H       -5.5111720        1.0655380       -0.1885930
 F       -1.9081970        3.3106930       -3.2573710
 C       -3.2980800        1.6403510        1.2720440
 C       -3.8595700        0.3124990        1.8491130
 H       -2.2272910        1.6787770        1.4937600
 H       -3.7636690        2.4692460        1.8331920
 C       -3.4939210        0.1324440        3.3432250
 H       -4.9571490        0.2767570        1.7506980
 H       -3.4601070       -0.5411330        1.2796890
 C       -4.0426640       -1.1787150        3.9474750
 H       -3.8829060        0.9902930        3.9210070
 H       -2.3973460        0.1502380        3.4503360
 H       -3.7644530       -1.2706290        5.0091100
 H       -3.6374380       -2.0574170        3.4208270
 H       -5.1423260       -1.2245740        3.8841970
 C        1.4390920        5.2222160       -1.5549690
 C        2.9235430        5.3991720       -1.1113260
 C        1.3603070        4.4190060       -2.8822340
 C        0.9231340        6.6617350       -1.8649070
 H        2.9939290        5.9656190       -0.1689560
 H        3.4731630        5.9658090       -1.8778270
 H        3.4409280        4.4502230       -0.9722700
 H        2.0436650        4.8656270       -3.6203920
 H        0.3520940        4.4422320       -3.3136810
 H        1.6344580        3.3701050       -2.7605550
 H        1.5308190        7.0734440       -2.6843720
 H        1.0265640        7.3407230       -1.0092770
 H       -0.1196810        6.6791780       -2.2039720
 C       -6.4183060        1.3045770       -2.7542210
 C       -6.2714080        0.1826590       -3.8203920
 C       -7.2262050        2.5102640       -3.3102810
 H       -7.0018340        0.8822500       -1.9189360
 H       -5.7359400       -0.6871860       -3.4113550
 H       -5.7179750        0.5324740       -4.7045210
 H       -7.2632120       -0.1554390       -4.1579620
 H       -6.7231680        2.9737780       -4.1720620
 H       -7.3629480        3.2859350       -2.5418130
 H       -8.2225400        2.1807020       -3.6429180
 C       -1.8325750        5.3885000        0.4904990
 C       -1.7756750        4.9174550        1.9688830
 C       -1.3559250        6.8749710        0.4807000
 C       -3.3192270        5.4273680        0.0095280
 H       -0.8212800        5.1775340        2.4395470
 H       -1.9093880        3.8407360        2.0751050
 H       -2.5713550        5.4202820        2.5398420
 H       -1.9658950        7.4364740        1.2038590
 H       -1.4854800        7.3528730       -0.4982000
 H       -0.3098270        6.9861250        0.7897680
 H       -3.8613780        6.2015590        0.5729650
 H       -3.8458810        4.4831400        0.1666740
 H       -3.3943330        5.6862930       -1.0577830
 F        0.6882230        3.3287230        2.5635460
 C        3.7415910        1.8141680       -1.1632250
 C        4.2484520        0.3603870       -1.3948280
 H        2.9065020        1.9964260       -1.8415730
 H        4.5536390        2.4999200       -1.4633930
 C        4.7879720        0.1469810       -2.8292320
 H        5.0453080        0.1110240       -0.6763790
 H        3.4265180       -0.3464270       -1.2074320
 C        5.2588130       -1.3013510       -3.0876300
 H        5.6291260        0.8413150       -3.0093480
 H        4.0018090        0.4065460       -3.5552580
 H        5.6445520       -1.4158380       -4.1131070
 H        4.4281400       -2.0138500       -2.9622130
 H        6.0621680       -1.5951940       -2.3922190
 C        5.3009590        1.8867680        3.6474290
 C        4.9332880        0.7263420        4.6150480
 C        5.7272590        3.1611600        4.4273310
 H        6.1766860        1.5557970        3.0640900
 H        5.7868200        0.4887290        5.2688340
 H        4.6628720       -0.1828570        4.0582980
 H        4.0803910        0.9903950        5.2579770
 H        4.9121690        3.5413580        5.0612670
 H        6.0248430        3.9675750        3.7400570
 H        6.5833960        2.9388080        5.0829230
