85
M00000200_2D_DFT last geometry from G09 out file
 Ru       -0.1762990        0.0155530        0.2544580
 C       -1.9089710       -0.5228370        0.3108580
 Cl        0.1764220       -0.2803010        2.6426040
 Cl        0.4821530       -0.5428150       -1.9971240
 H       -2.7883000        0.0781840        0.5479050
 H       -2.0648820       -1.6184230        0.2233550
 C       -0.3092540        1.9543340        0.0331070
 N        0.6823920        2.8138370        0.5168200
 N       -1.2206510        2.7360480       -0.6797300
 C        0.5443790        4.2409620        0.0202430
 C        1.7280670        2.4294060        1.4467330
 C       -0.8822570        4.2227670       -0.6536040
 H        0.5103150        4.8882330        0.9035020
 H       -0.7954200        4.5451800       -1.6982110
 C        1.7536070        2.8621710        2.8083040
 C        2.8002330        1.6073190        1.0343670
 C        2.8513630        2.5065560        3.6239590
 C        3.9264480        1.7027530        3.1763450
 H        2.8378810        2.8434700        4.6601830
 C        3.8766540        1.2391900        1.8458400
 H        4.6475360        0.5894670        1.4330400
 C       -2.2739050        2.2205320       -1.5380380
 C       -2.1317650        2.0738180       -2.9524210
 C       -3.5402100        1.8787840       -1.0069070
 C       -3.2283940        1.5866290       -3.7077430
 C       -4.4733400        1.2316200       -3.1442580
 H       -3.0895730        1.4672450       -4.7829590
 C       -4.6184400        1.3921510       -1.7480820
 H       -5.5433550        1.1529470       -1.2263960
 C       -0.8542270        2.4159390       -3.6921340
 H        0.0237990        2.0187630       -3.1773920
 H       -0.7339860        3.5047280       -3.8069560
 H       -0.8700270        1.9839670       -4.7004380
 F       -3.7703380        2.0363170        0.3806460
 C        1.7752550        4.7861840       -0.8616410
 C        2.1692470        3.8454090       -2.0329060
 C        1.4425860        6.1813350       -1.4779730
 C        3.0188420        5.0213100        0.0553220
 H        2.2941040        2.8069920       -1.7189360
 H        3.1255260        4.1817200       -2.4612720
 H        1.4297450        3.8760690       -2.8405220
 H        2.2971330        6.5002190       -2.0928480
 H        1.2859020        6.9514120       -0.7119820
 H        0.5651970        6.1632700       -2.1367160
 H        3.4864760        4.0924400        0.3903210
 H        2.7606000        5.6142690        0.9465410
 H        3.7799910        5.5858330       -0.5038050
 C       -5.6069640        0.6830800       -4.0184380
 C       -6.8744370        1.5809350       -3.9729580
 C       -5.9447760       -0.7923360       -3.6625340
 H       -5.2432610        0.6887880       -5.0596010
 H       -7.3207430        1.6048580       -2.9674700
 H       -7.6379640        1.1974360       -4.6671430
 H       -6.6396420        2.6161730       -4.2629780
 H       -5.0519050       -1.4311790       -3.7323300
 H       -6.7036300       -1.1883090       -4.3549240
 H       -6.3441880       -0.8811750       -2.6410310
 C       -1.9886320        5.1829670        0.0069780
 C       -2.3941590        4.7548760        1.4446300
 C       -1.4611070        6.6505230        0.0883140
 C       -3.2584090        5.2536270       -0.9006340
 H       -3.2946250        5.3083110        1.7509030
 H       -1.6095340        4.9929750        2.1718460
 H       -2.6220020        3.6883310        1.5119790
 H       -2.2347070        7.2701850        0.5652850
 H       -1.2633890        7.0782240       -0.9032190
 H       -0.5536400        6.7499150        0.6961610
 H       -3.8810570        4.3597240       -0.8373340
 H       -2.9957050        5.4163460       -1.9574820
 H       -3.8830850        6.1024870       -0.5846600
 C        0.6093090        3.6342330        3.4356580
 H       -0.3570500        3.2205910        3.1277540
 H        0.6260890        4.7030350        3.1705200
 H        0.6655570        3.5725530        4.5297740
 F        2.7991130        1.0971380       -0.2805020
 C        5.0854560        1.2986220        4.0958170
 C        4.6030840        0.3793610        5.2538050
 C        5.8690710        2.5274290        4.6343280
 H        5.7908210        0.7071200        3.4883320
 H        3.9182380        0.9090170        5.9326460
 H        5.4624610        0.0300690        5.8470590
 H        4.0725760       -0.5017160        4.8642900
 H        5.2413890        3.1593050        5.2803290
 H        6.2434260        3.1533900        3.8101420
 H        6.7336620        2.1963370        5.2302250
