65
Mol_000131_2D_DFT last geometry from G09 out file
Ru        0.0027740       -0.2558140        0.2443380
C       -1.0969220       -1.0958410       -0.9318560
Cl       -1.2609520       -0.2511280        2.3056440
Cl        2.0315010       -0.5303920       -1.0435390
H       -1.6601320       -0.6899190       -1.7763070
H       -1.1225300       -2.2001410       -0.8115800
C       -0.2831070        1.6394400       -0.0666680
N        0.6198850        2.5748580        0.4199110
N       -1.3102240        2.3425960       -0.6748590
C        1.6969330        2.2424860        1.3306450
C        0.3408430        3.9861880       -0.1347680
C        3.0203070        2.0351720        0.8695330
C        1.4181870        2.1363510        2.7162950
C        4.0547390        1.7509370        1.7767350
C        3.7551380        1.6688750        3.1518570
H        5.0709590        1.5779650        1.4309110
C        2.4430650        1.8461680        3.6341690
H        2.2360810        1.7550580        4.6977440
C       -1.2556030        3.8506980       -0.3068480
C       -2.4441160        1.7380760       -1.3262700
C       -3.5042880        1.1758360       -0.5718440
C       -2.5021990        1.7083840       -2.7414870
C       -4.6227760        0.6229200       -1.2202270
C       -4.6695940        0.6300360       -2.6297700
H       -5.4416300        0.1869750       -0.6523990
C       -3.6141930        1.1581020       -3.4024940
H       -3.6692100        1.1287840       -4.4882680
N       -5.8580660        0.0536320       -3.3229910
O       -5.8705260        0.0675120       -4.6094630
O       -6.8070470       -0.4228590       -2.5979270
C        1.1521480        4.0664680       -1.4881060
C        1.2370410        5.3897430       -2.2952310
H        2.1802470        3.7915360       -1.2201980
H        0.7991380        3.2628820       -2.1507160
H        1.4195960        6.2686920       -1.6644790
H        0.3424880        5.5925560       -2.8940380
H        2.0818630        5.3151900       -2.9979310
C        0.7363520        5.1203930        0.8609830
C        2.2225170        5.5250340        1.0298220
H        0.1856500        6.0179080        0.5450700
H        0.3508560        4.8602100        1.8530720
H        2.7008590        5.8239310        0.0898770
H        2.8313960        4.7354830        1.4801720
H        2.2672910        6.3933930        1.7061080
C       -1.8230570        4.7739300       -1.4296080
C       -3.3556020        4.9393160       -1.5950240
H       -1.4071750        5.7755220       -1.2497410
H       -1.4127220        4.4459440       -2.3913310
H       -3.8395760        5.3647440       -0.7085640
H       -3.8686630        4.0043060       -1.8396300
H       -3.5387260        5.6363150       -2.4282710
C       -2.0889750        3.9749990        1.0296050
C       -2.3710210        5.3600350        1.6741760
H       -3.0654180        3.5306310        0.7967020
H       -1.6384910        3.3158310        1.7842780
H       -2.6099600        6.1404080        0.9412300
H       -1.5414870        5.7273820        2.2880220
H       -3.2426590        5.2640450        2.3404150
H        3.2329040        2.0549800       -0.1943240
H        0.3982560        2.2574940        3.0714210
N        4.8520850        1.3762760        4.1194470
O        6.0422780        1.2262100        3.6553930
O        4.5506950        1.2966340        5.3674830
H       -3.4348350        1.1410190        0.5123900
H       -1.6688880        2.1020040       -3.3208930
