81
Mol_000134_2D_DFT last geometry from G09 out file
Ru       -0.5094070       -0.3747190        0.5595930
C       -1.4782400       -1.0812950       -0.8042420
Cl       -2.2165060        0.1805650        2.1821070
Cl        1.6020280       -1.4092520        0.0224740
H       -1.7267560       -0.6312270       -1.7687580
H       -1.8226810       -2.1251160       -0.6436280
C       -0.2547170        1.4784640        0.0297980
N        0.6890360        2.3003640        0.6504000
N       -0.9826470        2.2665560       -0.8489570
C        0.6281160        3.7223330        0.1582620
C        1.9461840        1.8821240        1.2735130
C        0.4924110        4.7741940        1.2966460
C       -0.5711810        3.7140180       -0.8341270
H        1.5664850        3.9289350       -0.3793470
C       -0.9031760        4.8104930        1.8840910
H        1.2576280        4.5848600        2.0574780
H        0.7401260        5.7563880        0.8517910
C       -1.9667610        4.7626500        1.0463430
H       -1.0299410        4.8486200        2.9670940
C       -1.7214140        4.6956390       -0.4464900
H       -2.9919290        4.7624880        1.4213350
H       -2.6327600        4.4338170       -0.9976530
H       -1.4162030        5.6923110       -0.8166950
H       -0.2331780        3.9851610       -1.8444060
C        2.1291850        1.7079720        2.6760960
C        3.0525870        1.7479060        0.3962330
C        3.4440360        1.4030100        3.1203980
C        4.5552570        1.2764760        2.2613020
H        3.6028740        1.2506150        4.1883990
C        4.3357120        1.4512170        0.8728980
H        5.1588640        1.3287470        0.1667960
C       -2.1047610        1.8821360       -1.6807700
C       -1.9565580        1.7356510       -3.0927850
C       -3.3723020        1.7104710       -1.0753070
C       -3.1228110        1.4330250       -3.8409760
C       -4.3981360        1.2612090       -3.2552010
H       -3.0319330        1.3117700       -4.9214120
C       -4.5019590        1.3954490       -1.8485890
H       -5.4641290        1.2488270       -1.3545060
C        0.9991090        1.7981470        3.7149540
C        1.2284160        2.9431770        4.7442300
C        0.8066850        0.4497600        4.4688010
H        0.0628440        2.0092910        3.1842590
H        2.1191800        2.7600890        5.3633750
H        0.3631270        3.0149630        5.4213360
H        1.3589990        3.9197560        4.2572910
H       -0.0810560        0.5059860        5.1155690
H        1.6751650        0.2124800        5.1014410
H        0.6568280       -0.3852360        3.7730150
H        2.8868800        1.8442300       -0.6771580
C        5.9450840        0.9753530        2.8074310
C        6.7931320        2.2518780        3.0840900
H        6.4941630        0.3385040        2.0945070
H        5.8622490        0.3998930        3.7435420
C        8.2005720        1.9320920        3.6336690
H        6.2541340        2.8949350        3.8000390
H        6.8848770        2.8345760        2.1521040
H        8.7772930        1.3174290        2.9239580
H        8.7718610        2.8555370        3.8181470
H        8.1428550        1.3784840        4.5845910
C       -0.5993800        1.8569450       -3.8082720
C       -0.5753410        3.0389290       -4.8200410
C       -0.1784900        0.5300710       -4.5034740
H        0.1654850        2.0569680       -3.0452840
H       -1.2708740        2.8701500       -5.6553350
H        0.4332720        3.1563440       -5.2459780
H       -0.8563390        3.9901560       -4.3428750
H        0.8133790        0.6465490       -4.9670580
H       -0.8847210        0.2386910       -5.2947130
H       -0.1128620       -0.2960890       -3.7818500
H       -3.4507600        1.7936010        0.0064120
C       -5.6229710        0.9632610       -4.1108790
C       -6.3899260        2.2424100       -4.5601630
H       -6.3195090        0.3174630       -3.5516290
H       -5.3246370        0.4006320       -5.0105700
C       -7.6295340        1.9270780       -5.4254370
H       -5.7028490        2.8965730       -5.1227950
H       -6.6983000        2.8110960       -3.6670570
H       -8.3523870        1.3021870       -4.8769020
H       -8.1467290        2.8520610       -5.7249690
H       -7.3503640        1.3870480       -6.3444200
