79
M00000318_2D_DFT last geometry from G09 out file
 Ru        0.3272890        0.1021810       -0.3123140
 C       -1.2278390       -0.7134240       -0.7628480
 Cl        0.3342000       -0.3219120        2.0654910
 Cl        1.2785290        0.0484530       -2.5552770
 H       -2.1867960       -0.2831220       -1.0547970
 H       -1.1530160       -1.8232900       -0.7861340
 C        0.0133570        2.0231550       -0.2776470
 N        1.0881180        2.8824860       -0.0069560
 N       -1.0999210        2.7906470       -0.5771010
 C        0.7522260        4.3250070       -0.3615340
 C        2.1129300        2.6106370        1.0232010
 C       -0.8065800        4.2893030       -0.5624570
 H        1.0034620        4.9343790        0.5146960
 H       -1.0503670        4.6578230       -1.5666540
 C        1.7628270        2.9921140        2.3446780
 C        3.4066320        2.0601100        0.7840150
 C        2.6573340        2.8822550        3.4159430
 C        3.9599690        2.3703650        3.2036040
 H        2.3375770        3.1765060        4.4174370
 C        4.2917290        1.9719930        1.8940470
 H        5.2890950        1.5688510        1.7150870
 C       -2.3005190        2.2964460       -1.2470460
 C       -2.3446290        2.4125980       -2.6558840
 C       -3.4155080        1.7431070       -0.5455020
 C       -3.4832540        2.0373580       -3.3879170
 C       -4.6224880        1.5278360       -2.7209460
 H       -3.4780720        2.1289020       -4.4755320
 C       -4.5513350        1.3828740       -1.3162070
 H       -5.4131820        0.9619860       -0.8001990
 H       -1.4650290        2.7747140       -3.1843800
 C       -3.4152880        1.5259270        0.9713820
 C       -4.2414310        0.3297340        1.5012760
 H       -3.7962810        2.4379670        1.4611060
 H       -2.3827880        1.4029030        1.3150280
 H       -3.9385000       -0.6161390        1.0297690
 H       -5.3235380        0.4579280        1.3504590
 H       -4.0728590        0.2271700        2.5838930
 C        1.6001140        4.9155470       -1.5831450
 C        3.0839370        5.0894870       -1.1415030
 C        1.5265880        4.0169700       -2.8474830
 C        1.1026670        6.3400670       -1.9803280
 H        3.5744540        4.1368700       -0.9437630
 H        3.1623950        5.7077570       -0.2335040
 H        3.6510730        5.5962730       -1.9367430
 H        0.5219470        4.0231500       -3.2942870
 H        1.7947980        2.9777930       -2.6410770
 H        2.2178810        4.4001310       -3.6131730
 H        1.7240290        6.7069580       -2.8107280
 H        1.1996060        7.0595880       -1.1567680
 H        0.0626660        6.3516840       -2.3310460
 C       -5.8784200        1.1506030       -3.4892670
 H       -6.5231430        0.4750020       -2.9102800
 H       -5.6349230        0.6540180       -4.4403130
 H       -6.4754140        2.0451930       -3.7350330
 C       -1.6905310        5.1681260        0.4432960
 C       -1.6300000        4.6673040        1.9132910
 C       -1.2077530        6.6529800        0.4408930
 C       -3.1719630        5.2124710       -0.0469780
 H       -0.6801010        4.9420010        2.3906740
 H       -1.7556490        3.5841190        1.9926050
 H       -2.4289340        5.1440240        2.5006950
 H       -1.8283380        7.2230560        1.1482530
 H       -1.3174550        7.1237750       -0.5444540
 H       -0.1658040        6.7652410        0.7649820
 H       -3.7321140        5.9507190        0.5464970
 H       -3.6864890        4.2550010        0.0489410
 H       -3.2348360        5.5218280       -1.1015260
 H        0.7585300        3.3553320        2.5350410
 C        3.9298390        1.5709180       -0.5668770
 C        4.4586710        0.1118440       -0.5650160
 H        4.7611040        2.2263680       -0.8814880
 H        3.1546740        1.6545740       -1.3316300
 H        5.3338840       -0.0125810        0.0889760
 H        4.7558630       -0.1726350       -1.5851530
 H        3.6862670       -0.5952470       -0.2349420
 C        4.9439620        2.2220970        4.3516120
 H        4.6888970        1.3487550        4.9751610
 H        4.9335800        3.1036920        5.0105690
 H        5.9722860        2.0799200        3.9914380
