63
M00000315_2D_DFT last geometry from G09 out file
 Ru        0.5764880        0.2021460       -0.5315740
 C       -0.6525030       -0.4893710       -1.6758110
 Cl       -0.2678420       -0.4598350        1.6450920
 Cl        2.3746640        0.5190990       -2.1150440
 H       -1.4383960        0.0324340       -2.2290910
 H       -0.5489700       -1.5790040       -1.8703630
 C        0.0355420        2.0587390       -0.3719490
 N        0.9174340        2.9909750        0.1514690
 N       -1.1501350        2.7237220       -0.6634010
 C        0.3896370        4.3730720        0.0551870
 C        2.2341780        2.7528030        0.6955450
 C       -1.1311360        4.1665080       -0.1780120
 H        0.8611100        4.9030630       -0.7891870
 H        0.6063680        4.9260390        0.9770590
 C       -1.9709030        4.3897440        1.1209480
 C       -1.7363490        5.2186150       -1.1439250
 C       -2.2222980        5.9257930        1.1847310
 H       -1.4606290        3.9964640        2.0110560
 H       -2.9240130        3.8534720        1.0250350
 C       -1.9230060        6.4742710       -0.2534760
 H       -3.2587500        6.1359950        1.4867310
 H       -1.5723940        6.4103230        1.9283040
 H       -1.0057310        7.0830200       -0.2479860
 H       -2.7305810        7.1193060       -0.6289820
 H       -2.7144720        4.8682000       -1.4993560
 H       -1.1030440        5.3995680       -2.0237620
 C        3.3815240        3.2733170        0.0543070
 C        2.3994340        2.0696630        1.9219500
 C        4.6577900        3.1094790        0.6099130
 C        4.8471280        2.3989250        1.8390900
 H        5.5093190        3.5112000        0.0662430
 C        3.6762280        1.8819800        2.4767360
 H        3.7495410        1.3290750        3.4099780
 C       -2.3863010        2.1176970       -1.0976160
 C       -2.8525840        2.3047850       -2.4194630
 C       -3.1746910        1.3409420       -0.2159680
 C       -4.0693790        1.7506160       -2.8506290
 C       -4.8815300        0.9700120       -1.9663640
 H       -4.3740900        1.9182860       -3.8808540
 C       -4.3886340        0.7754730       -0.6360380
 H       -4.9437800        0.1713580        0.0773510
 H        3.2828720        3.7798000       -0.9058540
 H        1.5299740        1.6677570        2.4384840
 N        6.1222190        2.2194020        2.3905610
 C        6.2907100        1.4377670        3.6232100
 C        7.3122510        2.7110670        1.6832010
 H        5.7429120        1.8869410        4.4695160
 H        7.3522360        1.4060890        3.8948050
 H        5.9410450        0.3965440        3.5049670
 H        7.4306510        2.2392320        0.6912540
 H        8.2083370        2.4826300        2.2718080
 H        7.2787140        3.8048270        1.5389940
 H       -2.2445990        2.8696450       -3.1268900
 H       -2.8157690        1.1454470        0.7930840
 N       -6.0971950        0.4163930       -2.3852400
 C       -6.5599530        0.6016130       -3.7673800
 C       -6.8845170       -0.4217720       -1.4696300
 H       -6.6816450        1.6696750       -4.0172480
 H       -7.5355510        0.1186610       -3.8947390
 H       -5.8654300        0.1560700       -4.5021760
 H       -7.1832630        0.1326320       -0.5634670
 H       -6.3299320       -1.3223260       -1.1513980
 H       -7.8001100       -0.7532620       -1.9727390
