103
Mol_000306_2D_DFT last geometry from G09 out file
 Ru        0.0642310       -0.2225030       -0.7916750
 C       -1.4296290       -0.9001060       -1.5713840
 Cl       -0.2420970       -1.2711600        1.3633660
 Cl        1.3574100        0.2303030       -2.8163450
 H       -2.4135250       -0.4492710       -1.7110330
 H       -1.3180050       -1.9518260       -1.9170180
 C       -0.2946690        1.6657260       -0.4177070
 N        0.6553270        2.4149660        0.2729610
 N       -1.2775030        2.5277970       -0.8777200
 C        1.7625280        1.7759310        0.9979180
 C        0.5613310        3.9090140       -0.1322380
 C        2.7894240        1.1682980        0.2315490
 C        1.8193800        1.6868480        2.4287190
 C        3.8626170        0.4888170        0.8296810
 C        3.9590360        0.4057550        2.2361260
 H        4.6149230        0.0186300        0.1937450
 C        2.9308020        1.0104620        2.9916730
 H        2.9823380        0.9268830        4.0777330
 C       -1.0413180        3.9909090       -0.3801510
 C       -2.5794170        2.0547370       -1.3388790
 C       -3.4477220        1.5284920       -0.3462590
 C       -3.0083680        2.0723310       -2.7026620
 C       -4.7395540        1.0775750       -0.6538570
 C       -5.2166020        1.1388350       -1.9862700
 H       -5.3736450        0.6799280        0.1405740
 C       -4.3319790        1.6286640       -2.9712720
 H       -4.6805210        1.6500030       -4.0043360
 C       -6.6093800        0.6412510       -2.3514780
 C       -6.6619990       -0.8864100       -2.6506670
 H       -7.3095520        0.8604860       -1.5284590
 H       -6.9803030        1.1853800       -3.2353470
 C       -8.0813540       -1.3849470       -3.0126800
 H       -5.9694690       -1.1169870       -3.4779790
 H       -6.2919410       -1.4409260       -1.7717640
 C       -8.1382780       -2.8998600       -3.3102770
 H       -8.4512800       -0.8267650       -3.8910590
 H       -8.7724390       -1.1503050       -2.1836820
 H       -9.1625010       -3.2169470       -3.5626520
 H       -7.8099170       -3.4902860       -2.4400570
 H       -7.4871660       -3.1650410       -4.1585270
 C        1.3395530        4.1430330       -1.4857720
 C        2.8851910        4.2335660       -1.4630950
 H        1.0496290        3.3507650       -2.1876160
 H        0.9799020        5.0868340       -1.9147260
 H        3.3642530        3.3489740       -1.0367090
 H        3.2500490        5.1115030       -0.9131840
 H        3.2427980        4.3289760       -2.5008010
 C        1.1683650        4.7697610        1.0156590
 C        1.2498880        6.3065600        0.8661540
 H        0.6452220        4.5526270        1.9481220
 H        2.1917020        4.3976670        1.1580090
 H        0.2685030        6.7910760        0.9259830
 H        1.7271990        6.6239360       -0.0689870
 H        1.8583210        6.7058750        1.6931050
 C       -1.5354630        4.9486890       -1.5086650
 C       -1.4114520        6.4806880       -1.3340820
 H       -1.0463590        4.6748470       -2.4466970
 H       -2.5993610        4.7210580       -1.6498510
 H       -0.3766070        6.8335290       -1.4047590
 H       -1.8262610        6.8433950       -0.3856880
 H       -1.9753360        6.9707360       -2.1437060
 C       -1.8172580        4.2577900        0.9674930
 C       -3.3209480        4.6343430        0.9320210
 H       -1.6912510        3.3773880        1.6110800
 H       -1.3091590        5.0839380        1.4805540
 H       -3.9437970        3.8975970        0.4180440
 H       -3.4974270        5.6105280        0.4623910
 H       -3.6857850        4.7069730        1.9697050
 H        2.7370110        1.2175180       -0.8517370
 C        0.7574430        2.2394280        3.3981200
 C        1.3489080        3.2907020        4.3846070
 C        0.0362260        1.1195780        4.2024460
 H       -0.0146410        2.7345620        2.8004530
 H        0.5396920        3.7586730        4.9672850
 H        1.9025230        4.0861550        3.8673050
 H        2.0380610        2.8216590        5.1017700
 H       -0.7437920        1.5656530        4.8406570
 H        0.7327620        0.5780500        4.8593030
 H       -0.4306230        0.3877540        3.5347140
 C        5.1282540       -0.2957250        2.9141070
 C        6.3402120        0.6429000        3.1875980
 H        4.7974480       -0.7313630        3.8710330
 H        5.4692900       -1.1354370        2.2868900
 C        7.5232540       -0.0785770        3.8762490
 H        6.6821510        1.0797520        2.2338940
 H        6.0097020        1.4879060        3.8156050
 C        8.7290830        0.8478070        4.1496520
 H        7.8495360       -0.9251530        3.2466110
 H        7.1776140       -0.5177980        4.8288470
 H        9.5492610        0.2989180        4.6390480
 H        8.4478560        1.6858540        4.8075130
 H        9.1240450        1.2753700        3.2141130
 H       -3.0862490        1.4609310        0.6783790
 C       -2.1173580        2.4620260       -3.8964650
 C       -2.7011300        3.6400870       -4.7291440
 C       -1.8499050        1.2434480       -4.8284180
 H       -1.1411550        2.7686710       -3.5031000
 H       -2.9259750        4.5183750       -4.1094560
 H       -3.6288760        3.3502870       -5.2442570
 H       -1.9790850        3.9446530       -5.5025880
 H       -1.3613480        0.4269330       -4.2854210
 H       -1.1778000        1.5431010       -5.6470260
 H       -2.7794190        0.8636690       -5.2784800
