55
Mol_000304_2D_DFT last geometry from G09 out file
 Ru        0.6787560        0.1210600       -0.4185790
 C       -0.2022760       -0.4448190       -1.9049900
 Cl       -0.8070740       -0.4182180        1.4169510
 Cl        2.8885750        0.1833510       -1.3704020
 H       -0.6460640        0.1651030       -2.6994590
 H       -0.2198360       -1.5433100       -2.0617940
 C        0.3202340        2.0212390       -0.4981180
 N        1.1735350        2.9487380        0.0925180
 N       -0.6721910        2.7398720       -1.1534890
 C        0.8378020        4.3724580       -0.2377720
 C        2.2846660        2.6367970        0.9467340
 C        0.6434460        5.2625780        1.0278810
 C       -0.4459040        4.2305010       -1.1149590
 H        1.6558780        4.7944950       -0.8400200
 C       -0.6871310        5.0137290        1.7082530
 H        1.4850210        5.1148340        1.7159570
 H        0.7033240        6.3141610        0.6917060
 C       -1.8002700        4.8987950        0.9438430
 H       -0.7234740        4.9218290        2.7952500
 C       -1.6683960        5.0229360       -0.5605070
 H       -2.7821880        4.7098680        1.3813670
 H       -2.5833680        4.7080320       -1.0767390
 H       -1.5093100        6.0811880       -0.8382700
 H       -0.2413070        4.5764060       -2.1392090
 C        2.1194610        1.7567060        2.0427730
 C        3.5483070        3.2416920        0.7275210
 C        3.2115700        1.4547980        2.8769320
 C        4.4805990        2.0496330        2.6656950
 H        3.0516290        0.7648200        3.7042730
 C        4.6233090        2.9543550        1.5777860
 H        5.6000990        3.4047550        1.4053100
 C       -1.8681060        2.2363670       -1.7711900
 C       -2.1633730        2.5822780       -3.1157230
 C       -2.7930370        1.4573070       -1.0361370
 C       -3.3566280        2.1480370       -3.7120950
 C       -4.2880660        1.3529870       -2.9905290
 H       -3.5847350        2.4032260       -4.7463590
 C       -3.9803230        1.0141550       -1.6468050
 H       -4.6670070        0.4087620       -1.0569590
 H        1.1417350        1.3294260        2.2572480
 H        3.7015340        3.9004190       -0.1262990
 C        5.6776900        1.7701600        3.5382850
 C        5.5729190        0.7129160        4.6363990
 O        6.7585240        2.4005410        3.3612240
 H        6.5419600        0.6255400        5.1400900
 H        4.8088250        0.9857140        5.3814210
 H        5.2934540       -0.2673580        4.2204710
 H       -1.4524660        3.1697850       -3.6971150
 H       -2.5733560        1.1890110       -0.0061640
 C       -5.5521500        0.9091160       -3.6845420
 C       -6.5443430        0.0197780       -2.9374690
 O       -5.7866910        1.2681530       -4.8730440
 H       -7.3886510       -0.2049900       -3.5984490
 H       -6.0750520       -0.9250000       -2.6218790
 H       -6.9234740        0.5179910       -2.0314220
