83
Mol_000302_2D_DFT last geometry from G09 out file
 Ru        0.1630810       -0.0876480       -0.0636960
 C       -1.1875040       -0.9697340       -0.8959190
 Cl       -0.4752400       -0.6188450        2.2148140
 Cl        1.7125630       -0.0065390       -1.9516670
 H       -2.1295070       -0.5910270       -1.2964990
 H       -1.0191020       -2.0664530       -0.9850690
 C       -0.3047060        1.8096700       -0.0957850
 N        0.5434840        2.7155730        0.5306940
 N       -1.3184410        2.5196620       -0.7124910
 C        1.6979630        2.2925120        1.3168140
 C        0.3047110        4.1444010       -0.0002020
 C        2.8988720        1.9298280        0.6565590
 C        1.6697520        2.2425540        2.7458690
 C        4.0501520        1.5376740        1.3508500
 C        4.0540690        1.4924600        2.7771760
 H        4.9240970        1.2467370        0.7737440
 C        2.8363630        1.8483930        3.4336180
 H        2.7759210        1.7951520        4.5178860
 C       -1.2742030        4.0202690       -0.3099700
 C       -2.4485000        1.9110750       -1.3876680
 C       -3.5608030        1.4846380       -0.6217290
 C       -2.4747650        1.6981650       -2.7990200
 C       -4.7049450        0.9222390       -1.2041550
 C       -4.7831290        0.7499190       -2.6205870
 H       -5.5149020        0.6038880       -0.5527780
 C       -3.6322380        1.1305920       -3.3780810
 H       -3.6196340        0.9684560       -4.4530630
 N       -5.9216840        0.2132960       -3.2342920
 C       -5.9478960       -0.0145410       -4.6855470
 C       -7.0619520       -0.2275340       -2.4186710
 H       -5.1842990       -0.7455400       -5.0077060
 H       -5.7824150        0.9208500       -5.2466720
 H       -6.9294340       -0.4060100       -4.9768240
 H       -7.4657720        0.5971090       -1.8072650
 H       -6.7941730       -1.0568910       -1.7392460
 H       -7.8671400       -0.5786300       -3.0743510
 C        1.2216320        4.2834690       -1.2813070
 C        1.3883330        5.6453430       -2.0083810
 H        2.2223910        3.9863430       -0.9453690
 H        0.9175830        3.5228570       -2.0113330
 H        0.5300170        5.9174450       -2.6323900
 H        2.2615170        5.5761590       -2.6773180
 H        1.5753390        6.4804040       -1.3213030
 C        0.6323240        5.2540800        1.0443720
 C        2.1100470        5.5862670        1.3755300
 H        0.1608400        6.1779520        0.6775340
 H        0.1302620        5.0062870        1.9828890
 H        2.6898140        5.8956130        0.4977260
 H        2.6354910        4.7497480        1.8450390
 H        2.1253910        6.4282780        2.0870650
 C       -1.7333640        4.9721840       -1.4579760
 C       -3.2377110        5.0973370       -1.8109090
 H       -1.3760680        5.9765760       -1.1866370
 H       -1.1991120        4.6963840       -2.3709340
 H       -3.8545940        5.4184690       -0.9630060
 H       -3.6610180        4.1664430       -2.1987720
 H       -3.3460830        5.8623450       -2.5974110
 C       -2.2140620        4.1651100        0.9501290
 C       -2.5479500        5.5594430        1.5479400
 H       -3.1709030        3.7269130        0.6433810
 H       -1.8273160        3.5189890        1.7479680
 H       -1.7393500        5.9806580        2.1545710
 H       -3.4232600        5.4536470        2.2093540
 H       -2.8100780        6.3026830        0.7843750
 H        2.9232270        1.9153720       -0.4284720
 C        0.4444640        2.5845380        3.5778600
 H       -0.4776390        2.2687070        3.0837350
 H        0.3819820        3.6655550        3.7814380
 H        0.4860970        2.0723270        4.5479260
 N        5.1901350        1.1052210        3.4983870
 C        5.1369430        0.9822340        4.9615440
 C        6.4015330        0.6721270        2.7877120
 H        6.1214590        0.6827310        5.3394280
 H        4.4034290        0.2238260        5.2898780
 H        4.8744400        1.9407760        5.4407460
 H        6.7890840        1.4659710        2.1271930
 H        6.2243670       -0.2279920        2.1717380
 H        7.1868150        0.4334450        3.5144650
 H       -3.5116090        1.5540040        0.4634720
 C       -1.2975400        2.0141840       -3.7078780
 H       -0.3508050        1.6768760       -3.2723430
 H       -1.2120200        3.0928490       -3.9082400
 H       -1.4143170        1.5141020       -4.6787900
