67
Mol_000237_2D_DFT last geometry from G09 out file
 Ru        0.1599060       -0.1549860       -0.3235300
 C       -1.4782880       -0.8517570       -0.6761040
 Cl        0.3164200       -0.7437180        2.0097860
 Cl        1.0151110       -0.0480860       -2.5909320
 H       -2.4497640       -0.3588540       -0.7460550
 H       -1.4718950       -1.9511950       -0.8412630
 C       -0.0654390        1.7685460       -0.2069580
 N        1.0598250        2.5776480       -0.0051500
 N       -1.1548350        2.5964760       -0.4275400
 C        2.1868550        2.2366030        0.8618160
 C        0.7820180        4.0123660       -0.4875710
 C        3.5157790        1.9666490        0.4043560
 C        1.9180730        2.2478970        2.2568590
 C        4.5186670        1.7647960        1.3914000
 C        4.2230940        1.8082670        2.7581560
 H        5.5397360        1.5614910        1.0784590
 C        2.9160180        2.0329820        3.2187120
 H        2.6781680        2.0303410        4.2804530
 C       -0.7879970        4.0873020       -0.2501640
 C       -2.4347400        2.1851970       -0.9774250
 C       -3.5978080        1.9604810       -0.1755930
 C       -2.5025170        2.0213760       -2.3850040
 C       -4.8030000        1.6271600       -0.8512780
 C       -4.8463830        1.5005050       -2.2458670
 H       -5.7091570        1.4532470       -0.2756080
 C       -3.6984570        1.6775270       -3.0372590
 H       -3.7283550        1.5480510       -4.1174320
 Cl       -6.4234090        1.0764370       -3.0466150
 C        1.1577500        4.1107490       -1.9935260
 H        2.2336130        3.9649450       -2.1196040
 H        0.9135030        5.1042550       -2.3924480
 H        0.6476140        3.3500460       -2.5944680
 C        1.5854200        5.0718880        0.2964950
 H        2.6568460        4.9751170        0.0854750
 H        1.4532600        5.0021420        1.3798800
 H        1.2765960        6.0762300       -0.0261710
 C       -1.5331400        4.9936470       -1.2571230
 H       -1.4039310        4.6840160       -2.2974760
 H       -1.1650950        6.0244690       -1.1574000
 H       -2.6093580        5.0063810       -1.0417690
 C       -1.1608330        4.5557910        1.1828500
 H       -2.2450170        4.5251050        1.3190250
 H       -0.8463360        5.5960730        1.3381650
 H       -0.6974520        3.9364160        1.9583000
 C        3.9400700        1.8495000       -1.0684630
 C        4.5777510        0.4638270       -1.3769820
 C        4.9158140        2.9872640       -1.4895050
 H        3.0386650        1.9189290       -1.6853800
 H        5.5402130        0.3273810       -0.8622280
 H        4.7594010        0.3745330       -2.4582220
 H        3.9107760       -0.3571470       -1.0854330
 H        4.5022590        3.9872970       -1.2947320
 H        5.1335190        2.9145430       -2.5660850
 H        5.8730100        2.9167270       -0.9519990
 H        0.8967010        2.4032110        2.5940510
 Cl        5.5620030        1.5516950        3.9635140
 C       -3.6187640        2.0017420        1.3625490
 C       -3.8953080        0.6005380        1.9830770
 C       -4.6414780        3.0395170        1.9092770
 H       -2.6198590        2.2959760        1.7018340
 H       -3.1161440       -0.1214720        1.7108920
 H       -4.8705120        0.1983360        1.6713090
 H       -3.9012350        0.6785950        3.0808800
 H       -4.5312790        3.1355570        3.0000960
 H       -5.6782320        2.7311030        1.7103770
 H       -4.5034010        4.0356740        1.4641560
 H       -1.5942350        2.1360560       -2.9725390
