79
Mol_000234_2D_DFT last geometry from G09 out file
 Ru        0.4453440       -0.1798960       -0.4884410
 C       -1.0954720       -1.0611130       -0.8652240
 Cl        0.6934130       -0.8398870        1.8213210
 Cl        1.2608380        0.0999230       -2.7584470
 H       -2.1171010       -0.6823600       -0.9319320
 H       -0.9581460       -2.1473640       -1.0606770
 C       -0.0227550        1.6969510       -0.3068030
 N        0.9954200        2.6337130       -0.0948210
 N       -1.2132940        2.3832300       -0.4822770
 C        2.1710770        2.4080210        0.7493990
 C        0.5271380        4.0350730       -0.5204100
 C        3.5175210        2.3214230        0.2752170
 C        1.9256410        2.3418250        2.1464780
 C        4.5417970        2.2036810        1.2527350
 C        4.3062490        2.1472680        2.6422950
 H        5.5741260        2.1421890        0.9072840
 C        2.9624220        2.2113690        3.0794010
 H        2.7244950        2.1492330        4.1426790
 C       -1.0345530        3.9007960       -0.2584460
 C       -2.4458230        1.8307730       -1.0222360
 C       -3.5481260        1.4200810       -0.2102470
 C       -2.5329610        1.7136180       -2.4327490
 C       -4.7089160        0.9522970       -0.8826050
 C       -4.8186180        0.8579090       -2.2874230
 H       -5.5596770        0.6325960       -0.2797260
 C       -3.6932320        1.2345690       -3.0603120
 H       -3.7177100        1.1445390       -4.1477590
 C       -6.1058430        0.3785150       -2.9479320
 C       -7.0764900        1.5364700       -3.3102250
 H       -6.6286190       -0.3247210       -2.2801530
 H       -5.8649460       -0.1799750       -3.8667310
 H       -7.9881230        1.1412080       -3.7850850
 H       -6.6079880        2.2442770       -4.0105100
 H       -7.3760960        2.0993300       -2.4132830
 C        0.8582620        4.2307090       -2.0276450
 H        1.9413950        4.2231920       -2.1741980
 H        0.4848220        5.1987610       -2.3878550
 H        0.4341930        3.4322460       -2.6463490
 C        1.2037210        5.1619410        0.2888440
 H        2.2747290        5.2083440        0.0597480
 H        1.1023720        5.0375560        1.3706060
 H        0.7634470        6.1289940        0.0068020
 C       -1.9077260        4.7382230       -1.2212810
 H       -1.6715600        5.8038380       -1.0903700
 H       -2.9722730        4.6044040       -0.9897550
 H       -1.7603640        4.4808910       -2.2733560
 C       -1.4370330        4.2705600        1.1955550
 H       -2.5045420        4.0903610        1.3470610
 H       -1.2596490        5.3381470        1.3813980
 H       -0.8797430        3.6934690        1.9410820
 C        3.9306040        2.3247300       -1.2061520
 C        4.7408160        1.0520660       -1.5875000
 C        4.7407920        3.5988450       -1.5866950
 H        3.0192760        2.3010970       -1.8119760
 H        5.7212660        1.0218340       -1.0894850
 H        4.9147090        1.0351090       -2.6739630
 H        4.1922300        0.1383620       -1.3266890
 H        4.9533340        3.6019360       -2.6671970
 H        5.7049380        3.6346430       -1.0579060
 H        4.1994760        4.5251860       -1.3457710
 H        0.8968790        2.3686970        2.4975510
 C        5.4517100        1.9690920        3.6312800
 C        5.7456910        0.4782290        3.9571130
 H        5.2169910        2.4957400        4.5707320
 H        6.3680760        2.4315830        3.2303180
 H        6.5737640        0.3962280        4.6788560
 H        6.0254420       -0.0778410        3.0499430
 H        4.8630680       -0.0151660        4.3902110
 C       -3.5292800        1.4006850        1.3290200
 C       -3.6058890       -0.0451000        1.9019160
 C       -4.6601600        2.2764640        1.9427890
 H       -2.5674840        1.8086510        1.6584580
 H       -2.7500430       -0.6500040        1.5795190
 H       -4.5312980       -0.5575050        1.5996130
 H       -3.5867250       -0.0093260        3.0021460
 H       -4.5337760        2.3455100        3.0342980
 H       -5.6538770        1.8446210        1.7533660
 H       -4.6625710        3.2979940        1.5350690
 H       -1.6622000        1.9708470       -3.0329040
