85
M00000119_2D_DFT last geometry from G09 out file
Ru        0.3825760        0.0953650       -0.8485710
C       -1.2522980       -0.6917350       -0.6057540
Cl        1.1706700       -0.8816080        1.2744870
Cl        0.3656300        0.3273710       -3.2812170
H       -2.0761160       -0.3341740        0.0153980
H       -1.3758280       -1.7190830       -1.0097810
C       -0.0018670        1.9163890       -0.3485120
N        1.0062050        2.7790820        0.1440850
N       -1.1309770        2.7173320       -0.5699450
C        0.6883950        4.2344580       -0.1121420
C        1.9898310        2.4358190        1.1559700
C       -0.8562930        4.2139810       -0.3948760
H        0.8906910        4.7940320        0.8073230
H       -1.0490370        4.6735820       -1.3739190
C        1.7526180        2.8924650        2.4749490
C        3.2168860        1.7490670        0.9022440
C        2.6870200        2.7134520        3.5033340
C        3.9185060        2.0679460        3.2406020
H        2.4708390        3.0556060        4.5147550
C        4.1648140        1.5885430        1.9390340
H        5.0928440        1.0679370        1.7265110
C       -2.2737720        2.3049590       -1.3777620
C       -2.1659330        2.4817890       -2.7765190
C       -3.5126930        1.8162280       -0.8468700
C       -3.2232600        2.1835840       -3.6483080
C       -4.4459150        1.6993650       -3.1324000
H       -3.1042080        2.3052190       -4.7238400
C       -4.5738930        1.5232910       -1.7390650
H       -5.5102220        1.1546790       -1.3351650
H       -1.2198890        2.8148250       -3.1879750
C       -3.7577220        1.5692580        0.6145830
O       -5.1230570        1.6730030        0.9191030
O       -2.9066030        1.2935190        1.4864640
C       -5.5084430        1.3718500        2.3167750
H       -6.5968240        1.4925950        2.3330080
H       -5.2202500        0.3454540        2.5820010
H       -5.0239930        2.0739360        3.0088410
C        1.6161080        4.8856760       -1.2444370
C        3.0915170        4.9307850       -0.7414120
C        1.5605760        4.1105170       -2.5884320
C        1.2001030        6.3631550       -1.5182310
H        3.5506010        3.9400550       -0.6933770
H        3.1711610        5.3929860        0.2548570
H        3.6972470        5.5347030       -1.4332370
H        2.3105480        4.5233840       -3.2799860
H        0.5851080        4.2161520       -3.0828930
H        1.7664940        3.0432410       -2.4685680
H        1.8623680        6.7779280       -2.2923840
H        1.3013710        6.9964900       -0.6263970
H        0.1729420        6.4554950       -1.8934060
C       -5.5555130        1.3927390       -4.0888410
O       -6.6678190        0.8455000       -3.4453430
O       -5.5135550        1.5951120       -5.3235830
C       -7.8213080        0.4980920       -4.3045750
H       -8.5680730        0.0910740       -3.6144800
H       -8.2025480        1.3931030       -4.8151350
H       -7.5281450       -0.2501100       -5.0535880
C       -1.7788920        5.0116040        0.6424490
C       -1.7610060        4.4061480        2.0742920
C       -1.2996220        6.4947170        0.7495890
C       -3.2466830        5.0957070        0.1164180
H       -0.8467570        4.6857790        2.6156020
H       -1.8467140        3.3162560        2.0689320
H       -2.6021060        4.8109560        2.6573350
H       -1.9389070        7.0150960        1.4778780
H       -1.3869980        7.0300230       -0.2053200
H       -0.2667430        6.5896070        1.1057100
H       -3.7975080        4.1592440        0.2098040
H       -3.2818190        5.4057190       -0.9393150
H       -3.7981950        5.8499950        0.6971440
H        0.8042280        3.3664480        2.7021700
C        3.5048840        1.1302620       -0.4138170
O        4.8542280        1.0721140       -0.7103710
O        2.6420750        0.6757580       -1.2065670
C        5.2318520        0.3673850       -1.9631650
H        4.7606840        0.8508960       -2.8285850
H        6.3225890        0.4512390       -2.0036400
H        4.9138580       -0.6826000       -1.9136840
C        4.8945300        1.9077400        4.3613290
O        6.0397740        1.2142360        3.9658870
O        4.7261370        2.3392840        5.5254790
C        7.0658880        0.9865230        5.0067920
H        7.8627110        0.4369020        4.4944250
H        7.4357510        1.9444680        5.3975880
H        6.6476500        0.3943330        5.8321480
