79
M00000120_2D_DFT last geometry from G09 out file
Ru        0.3492260        0.2492850        0.3122440
C       -1.0466450       -0.5715090       -0.5063210
Cl       -0.5349720        0.0108380        2.5084630
Cl        1.9257580       -1.5597310        0.6072280
H       -1.0446320       -0.7104000       -1.6049140
H       -1.8331690       -1.0880050        0.0653870
C       -0.0619480        2.2179550       -0.0031030
N        0.9097500        3.1552510        0.3176740
N       -1.1009420        2.8753130       -0.6452560
C        0.5645160        4.5965610       -0.1278800
C        1.9761830        2.7357270        1.2323030
C       -0.8321180        4.3814440       -0.8742300
H        0.3914070        5.1638060        0.7904300
H       -0.6771310        4.5162160       -1.9544170
C        1.8588460        2.9731200        2.6425940
C        3.1167330        1.9712720        0.7900690
C        2.8420750        2.4997340        3.5443160
C        3.9579670        1.7873530        3.0911740
H        2.7020150        2.6765480        4.6079410
C        4.0843540        1.5232410        1.7234640
H        4.9288840        0.9386190        1.3690810
C       -2.1755240        2.1602190       -1.3090120
C       -2.1575250        2.0183980       -2.7346090
C       -3.3080090        1.6247190       -0.6163860
C       -3.2409510        1.4290440       -3.4272090
C       -4.3383150        0.9042020       -2.7293890
H       -3.1989840        1.3667500       -4.5127570
C       -4.3572670        0.9931810       -1.3317960
H       -5.2015380        0.5847250       -0.7794120
C       -0.9555540        2.3451340       -3.5765420
O       -1.3343760        3.0065820       -4.7501670
O        0.2194190        2.0137960       -3.3277820
C       -0.2671180        3.2383630       -5.7562170
H       -0.7711550        3.7636000       -6.5741100
H        0.5372860        3.8508590       -5.3296710
H        0.1477160        2.2801390       -6.0974840
C       -3.6134670        1.7164630        0.8703390
F       -4.7528740        2.5753320        1.0799420
F       -2.6225890        2.1999790        1.7104360
F       -4.0172060        0.4602620        1.3890740
C        1.7472080        5.3515210       -0.9092520
C        3.0118960        5.4132560        0.0095100
C        2.0756770        4.7266490       -2.2925240
C        1.4197840        6.8546630       -1.1715260
H        2.7589920        5.8244940        0.9982110
H        3.7528450        6.0852960       -0.4468470
H        3.5090370        4.4567450        0.1494650
H        3.0388880        5.1128950       -2.6560840
H        1.3151410        5.0056550       -3.0368000
H        2.1358370        3.6402500       -2.2736100
H        1.1875300        7.4014160       -0.2469720
H        0.6075930        6.9976680       -1.8871650
H        2.3144860        7.3218980       -1.6087660
H       -5.1629370        0.4319200       -3.2622850
C       -2.0612390        5.3584020       -0.4939640
C       -2.4225240        5.3767420        1.0150700
C       -1.7502310        6.8344740       -0.8884890
C       -3.3308020        5.0021860       -1.3362870
H       -2.6085100        4.3830440        1.4183910
H       -3.3374750        5.9714650        1.1570420
H       -1.6325580        5.8360350        1.6185180
H       -1.5131540        6.9447920       -1.9563020
H       -0.9456280        7.2699180       -0.2933610
H       -2.6508850        7.4342800       -0.6936650
H       -3.0977300        4.8886580       -2.4052090
H       -4.0525210        5.8268170       -1.2482210
H       -3.8473100        4.1052850       -0.9944240
C        0.7236220        3.7268620        3.2872890
O        0.3375160        3.1030240        4.4619900
O        0.2183420        4.8015810        2.8939940
C       -0.8076490        3.6897640        5.1973110
H       -0.5991600        4.7330410        5.4713700
H       -1.7108280        3.6390850        4.5753900
H       -0.9119020        3.0571240        6.0843590
C        3.4980540        1.6399290       -0.6502100
F        4.2940600        2.6791630       -1.2355370
F        2.4304260        1.4248220       -1.5373980
F        4.3135120        0.4951970       -0.7455390
H        4.7051730        1.4189000        3.7928340
