57
M00000117_2D_DFT last geometry from G09 out file
Ru        0.1113880       -0.0132250        0.3529840
C       -0.9803210       -0.8308160       -0.8485270
Cl       -1.2852140        0.1697350        2.3070080
Cl        2.2442120       -0.5259740       -0.6375750
H       -1.4763800       -0.4259920       -1.7341930
H       -1.1074310       -1.9199940       -0.6712440
C        0.0629860        1.8534640       -0.1592710
N        1.0237970        2.7480860        0.3078730
N       -0.7888100        2.5842440       -0.9732740
C        0.8827340        4.1410970       -0.2383420
C        2.0933540        2.4254930        1.2029860
C        0.8140130        5.2257390        0.8780110
C       -0.4144610        4.0388210       -1.0976160
H        1.7501350        4.3481640       -0.8787660
C       -0.5214730        5.2303090        1.5929930
H        1.6487670        5.0890060        1.5780220
H        0.9876940        6.1999500        0.3849210
C       -1.6556970        5.1209180        0.8601820
H       -0.5465190        5.2942180        2.6821990
C       -1.5443960        5.0147910       -0.6472810
H       -2.6408460        5.0850600        1.3266860
H       -2.4973880        4.7239010       -1.1064360
H       -1.2912410        6.0022380       -1.0759680
H       -0.1875850        4.2385340       -2.1564440
C        1.8505160        1.9509590        2.5149520
C        3.4463900        2.6119180        0.8257820
C        2.9142350        1.6496790        3.3832480
C        4.2560720        1.8408960        2.9736990
H        2.7134170        1.2751680        4.3855230
C        4.5199240        2.3349930        1.6727410
H        5.5384470        2.4758530        1.3212870
C       -1.8704240        2.0975060       -1.7766190
C       -1.6759230        1.8436020       -3.1568950
C       -3.1799640        1.9333010       -1.2649940
C       -2.7368580        1.4261580       -3.9779070
C       -4.0336330        1.2495240       -3.4318620
H       -2.5757150        1.2236360       -5.0352660
C       -4.2532780        1.5065570       -2.0584320
H       -5.2376040        1.3832840       -1.6145250
H        0.8231860        1.8227350        2.8476860
F        3.7361540        3.0816900       -0.4687910
C        5.3531800        1.5131320        3.9368370
O        6.6164520        1.7430070        3.3871320
O        5.1823690        1.0846420        5.1005660
C        7.7775590        1.4312550        4.2498610
H        8.6516540        1.6743370        3.6363930
H        7.7527690        2.0435260        5.1617280
H        7.7734920        0.3679290        4.5255940
H       -0.6736690        1.9539430       -3.5711310
F       -3.4336760        2.2163640        0.0785180
C       -5.1339760        0.7947920       -4.3430850
O       -6.3436480        0.6508600       -3.6670100
O       -4.9979590        0.5675850       -5.5663810
C       -7.5029500        0.1969600       -4.4695180
H       -8.3314810        0.1491280       -3.7552520
H       -7.7149810        0.9149980       -5.2732860
H       -7.3006960       -0.7904840       -4.9059250
