91
M00000204_2D_DFT last geometry from G09 out file
 Ru        0.2906170        0.3696250       -0.6587720
 C       -1.2973280       -0.4639860       -0.9230420
 Cl        0.6756920       -0.2298870        1.6495530
 Cl        0.8896710        0.5081790       -3.0158180
 H       -2.2993950       -0.0456330       -1.0259280
 H       -1.2043520       -1.5663750       -1.0416540
 C       -0.0564990        2.2742510       -0.4528790
 N        1.0297590        3.1437810       -0.2783450
 N       -1.2136530        3.0274720       -0.5572320
 C        0.6241850        4.5949610       -0.5043860
 C        2.1778010        2.8445870        0.6038420
 C       -0.9472000        4.5312400       -0.5044130
 H        0.9763280        5.1621180        0.3655430
 H       -1.3248610        4.9400020       -1.4500260
 C        1.9753920        3.1338870        1.9786030
 C        3.4497310        2.3577840        0.1810130
 C        2.9936150        2.9993380        2.9295890
 C        4.2791910        2.5582230        2.5338910
 H        2.7856960        3.2222360        3.9778670
 C        4.4644230        2.2487390        1.1727980
 H        5.4486390        1.9045390        0.8522570
 C       -2.4846860        2.5375950       -1.0864310
 C       -2.7161160        2.7166700       -2.4704630
 C       -3.4894390        1.9323370       -0.2709680
 C       -3.9365400        2.3538990       -3.0628970
 C       -4.9720460        1.7953880       -2.2759850
 H       -4.0766590        2.4945400       -4.1362150
 C       -4.7144770        1.5891870       -0.9015890
 H       -5.4969940        1.1341650       -0.2959060
 H       -1.9187360        3.1190730       -3.0920910
 C       -3.2901410        1.6476630        1.2209740
 C       -3.9453190        0.3565890        1.7814330
 H       -2.2170710        1.6012490        1.4347640
 H       -3.6862880        2.4984870        1.8020800
 C       -3.5550010        0.1010780        3.2582980
 H       -5.0443270        0.4184530        1.7156180
 H       -3.6395930       -0.5115680        1.1756590
 C       -4.2069760       -1.1689860        3.8477690
 H       -3.8450350        0.9750120        3.8693680
 H       -2.4585640        0.0145540        3.3321380
 H       -3.9063100       -1.3167370        4.8969160
 H       -3.9045870       -2.0672270        3.2860670
 H       -5.3073320       -1.1087220        3.8197530
 C        1.2959980        5.2709620       -1.7898440
 C        2.8214790        5.4570450       -1.5338240
 C        1.0741800        4.4399120       -3.0824660
 C        0.7275020        6.7020620       -2.0407980
 H        3.0067860        6.0255310       -0.6089220
 H        3.2709190        6.0216770       -2.3645640
 H        3.3505800        4.5077270       -1.4575520
 H        0.0198020        4.4448790       -3.3946290
 H        1.3847150        3.3982290       -2.9708710
 H        1.6528650        4.8805230       -3.9083010
 H        1.2299020        7.1259190       -2.9229570
 H        0.9184830        7.3800030       -1.1987090
 H       -0.3491270        6.7071880       -2.2541380
 C       -6.3131220        1.4301790       -2.8908730
 H       -6.1869490        0.9269440       -3.8613690
 H       -6.9244500        2.3305060       -3.0711120
 H       -6.8933650        0.7639140       -2.2378670
 C       -1.7096670        5.3425050        0.6476840
 C       -1.4529030        4.7785180        2.0726440
 C       -1.2571550        6.8367370        0.6559500
 C       -3.2425770        5.3746260        0.3540550
 H       -0.4489910        5.0403500        2.4321400
 H       -1.5651420        3.6922740        2.1197700
 H       -2.1687730        5.2223380        2.7806130
 H       -1.5022990        7.3502220       -0.2824510
 H       -0.1841310        6.9582430        0.8482640
 H       -1.7905900        7.3582190        1.4646220
 H       -3.7335240        6.0737190        1.0477970
 H       -3.7238680        4.4024630        0.4716150
 H       -3.4466580        5.7278600       -0.6683500
 H        0.9895800        3.4462100        2.3064050
 C        3.8351880        1.9586740       -1.2439480
 C        4.3334880        0.4908740       -1.3934760
 H        2.9992640        2.1107310       -1.9317170
 H        4.6540110        2.6197320       -1.5797090
 C        4.8792650        0.1906770       -2.8095690
 H        5.1237180        0.2809290       -0.6549810
 H        3.5068910       -0.1997990       -1.1692070
 C        5.3428540       -1.2729500       -2.9809170
 H        5.7255670        0.8685320       -3.0251630
 H        4.0983210        0.4120000       -3.5539170
 H        4.5072650       -1.9721340       -2.8183790
 H        6.1405220       -1.5300920       -2.2647750
 H        5.7333560       -1.4496750       -3.9958010
 C        5.3999130        2.3905740        3.5457930
 H        6.3823880        2.3217190        3.0584950
 H        5.2593140        1.4697230        4.1364770
 H        5.4318600        3.2294210        4.2576810
