79
M00000203_2D_DFT last geometry from G09 out file
 Ru        0.3328730        0.0510290        0.0560190
 C       -0.8500270       -0.7588820       -1.0584080
 Cl       -0.7665360        0.0281360        2.2025490
 Cl        2.1942780       -0.3135090       -1.5018080
 H       -1.3842120       -0.3460640       -1.9186460
 H       -0.9452000       -1.8560840       -0.9048210
 C        0.0451800        1.9599960       -0.1953110
 N        0.9453060        2.8802240        0.3384840
 N       -0.9483590        2.6832320       -0.8316720
 C        0.7101020        4.2816280       -0.1660480
 C        1.8819290        2.5657620        1.3909100
 C       -0.7538000        4.1895120       -0.7286090
 H        0.7422800        4.9559960        0.6928640
 H       -0.7724450        4.5825650       -1.7504540
 C        1.7857670        3.1509080        2.6771800
 C        2.9482930        1.6543260        1.2136780
 C        2.6529440        2.8545710        3.7318630
 C        3.6950850        1.9121560        3.5516710
 H        2.4862780        3.3502260        4.6869340
 C        3.8202790        1.3255090        2.2705390
 H        4.6155390        0.6029820        2.0816360
 C       -2.0748290        2.1211040       -1.5207320
 C       -2.2599070        2.2874720       -2.9118780
 C       -3.0840260        1.3995880       -0.8383590
 C       -3.3677130        1.7908890       -3.6091690
 C       -4.3720340        1.0694890       -2.9179530
 H       -3.4241950        1.9684490       -4.6819360
 C       -4.2007490        0.8835440       -1.5226140
 H       -4.9506100        0.3278820       -0.9580010
 F       -1.2913590        2.9963500       -3.6532630
 H       -2.9707890        1.2251740        0.2288590
 C        1.8249550        4.7853890       -1.1918320
 C        2.0095290        3.8261910       -2.3996470
 C        1.4428940        6.2022500       -1.7208530
 C        3.1882680        4.9384080       -0.4493240
 H        2.2941210        2.8159310       -2.0838120
 H        2.8104100        4.2076980       -3.0510430
 H        1.1020340        3.7449830       -3.0106690
 H        2.2422300        6.5636190       -2.3843070
 H        1.3371070        6.9304670       -0.9039680
 H        0.5149150        6.2042640       -2.3082350
 H        3.6140590        3.9738410       -0.1560360
 H        3.0946080        5.5621760        0.4536660
 H        3.9153640        5.4279970       -1.1142680
 C       -5.5997920        0.5053160       -3.6434640
 C       -5.2117110       -0.5600580       -4.7068850
 C       -6.4794320        1.6278920       -4.2619960
 H       -6.2149820       -0.0055180       -2.8840180
 H       -6.1167240       -0.9986050       -5.1544460
 H       -4.6250760       -1.3753890       -4.2577690
 H       -4.6142460       -0.1236280       -5.5212280
 H       -7.3896610        1.1969210       -4.7063940
 H       -5.9456920        2.1718390       -5.0556930
 H       -6.7863470        2.3588760       -3.4990130
 C       -1.8998670        4.9683590        0.0757720
 C       -2.2717820        4.2912300        1.4232760
 C       -1.4375140        6.4306830        0.3707640
 C       -3.1793090        5.0951940       -0.8121220
 H       -3.0601850        4.8766580        1.9204170
 H       -1.4192210        4.2353140        2.1065680
 H       -2.6564500        3.2756020        1.2843800
 H       -2.2692740        6.9753910        0.8408890
 H       -1.1673560        6.9716460       -0.5460130
 H       -0.5911500        6.4809650        1.0677280
 H       -3.6800660        4.1366160       -0.9758980
 H       -2.9480840        5.5356820       -1.7948250
 H       -3.9034920        5.7592610       -0.3169080
 F        0.7651120        4.0926370        2.9395710
 H        3.1018950        1.2064980        0.2355200
 C        4.6437490        1.5312950        4.6939220
 C        3.8925780        0.8088640        5.8479750
 C        5.4558140        2.7474430        5.2194660
 H        5.3699800        0.8114000        4.2808980
 H        3.1653390        1.4740080        6.3372870
 H        4.6063030        0.4695180        6.6145270
 H        3.3457220       -0.0699480        5.4756770
 H        4.8031940        3.5052310        5.6785470
 H        6.0172420        3.2324350        4.4067400
 H        6.1771480        2.4216980        5.9846740
