85
M00000206_2D_DFT last geometry from G09 out file
 Ru        0.3528540        0.5839380       -0.6397390
 C       -1.1643960       -0.3089700       -1.0712630
 Cl        0.5821460       -0.2767200        1.6140350
 Cl        1.1977880        0.9393690       -2.8917660
 H       -2.2063360        0.0031010       -1.0280890
 H       -0.9771960       -1.3645380       -1.3702070
 C       -0.0968790        2.4755270       -0.3742230
 N        0.8835750        3.3268940        0.1579390
 N       -1.1589030        3.2557740       -0.8103910
 C        0.5858680        4.8113560       -0.0969280
 C        1.8714370        2.8958300        1.1535140
 C       -0.8633230        4.7801330       -0.7560750
 H        0.5310600        5.3075050        0.8812700
 H       -0.7743470        5.0766130       -1.8041440
 C        1.6382850        3.1934210        2.5369130
 C        3.0852720        2.2093070        0.8352610
 C        2.6147710        2.9147950        3.5232000
 C        3.7972690        2.2398560        3.1931000
 H        2.4095360        3.1895130        4.5553290
 C        3.9998130        1.8570140        1.8628780
 H        4.8918430        1.2939380        1.5936690
 C       -2.3278550        2.6826390       -1.4711630
 C       -2.4811470        2.6506510       -2.8980480
 C       -3.3662750        2.0903250       -0.6867470
 C       -3.6350020        2.0664190       -3.4810080
 C       -4.6565970        1.5184770       -2.6936260
 H       -3.7128350        2.0430990       -4.5653160
 C       -4.5113400        1.5258050       -1.2988080
 H       -5.2859390        1.0888140       -0.6684980
 C       -1.5126060        3.2426820       -3.8888750
 O       -1.3924820        2.4209570       -5.0018040
 O       -0.9410380        4.3516740       -3.8060840
 C       -0.4415790        2.8556770       -6.0516910
 H       -0.7151820        3.8483930       -6.4349530
 H        0.5740700        2.8795910       -5.6380220
 H       -0.5278920        2.0910410       -6.8306580
 C       -3.4247060        2.0286550        0.8294450
 O       -3.0969540        0.7631240        1.2708500
 O       -3.8646240        2.9347730        1.5664330
 C       -3.1470500        0.5095230        2.7354210
 H       -2.7314440       -0.4958850        2.8462320
 H       -2.5293120        1.2484950        3.2541010
 H       -4.1880100        0.5587990        3.0853120
 C        1.7567180        5.5548920       -0.9123580
 C        3.0559720        5.5839980       -0.0440000
 C        2.0314850        4.9054680       -2.2952790
 C        1.4318490        7.0551550       -1.1805070
 H        3.5642070        4.6224450       -0.0070390
 H        2.8513560        5.9249630        0.9833390
 H        3.7668180        6.2957600       -0.4888280
 H        1.2295310        5.1298380       -3.0073210
 H        2.1470790        3.8238330       -2.2378150
 H        2.9686640        5.3092860       -2.7056370
 H        1.2902310        7.6297180       -0.2537750
 H        0.5628960        7.1941210       -1.8283010
 H        2.2935560        7.4942600       -1.7045060
 H       -5.5415160        1.0829480       -3.1576610
 C       -2.0017280        5.7438520       -0.1404670
 C       -2.1361380        5.6922380        1.4023240
 C       -1.6967880        7.2296200       -0.5139060
 C       -3.3975660        5.4655400       -0.7858610
 H       -1.2422100        6.0993130        1.8967010
 H       -2.3216370        4.6851430        1.7707580
 H       -2.9862410        6.3209010        1.7086990
 H       -1.6067540        7.3774830       -1.5991980
 H       -0.7984480        7.6149650       -0.0266200
 H       -2.5382850        7.8473660       -0.1677520
 H       -3.8759550        4.5704630       -0.3904140
 H       -3.3366930        5.3962960       -1.8807270
 H       -4.0653360        6.3073150       -0.5502860
 C        0.3087180        3.6040190        3.0999580
 O        0.4666660        4.5742910        4.1014080
 O       -0.7915720        3.0914340        2.8236160
 C       -0.7207180        4.8746910        4.9371210
 H       -1.5724650        5.1717190        4.3154910
 H       -0.9933170        3.9923370        5.5337230
 H       -0.3990690        5.6972560        5.5849190
 C        3.6512420        1.8584990       -0.5293170
 O        3.8323010        0.4817390       -0.6215050
 O        4.0725900        2.6638090       -1.3815300
 C        4.5628680       -0.0178960       -1.8147850
 H        4.5948570       -1.1034430       -1.6754080
 H        4.0122220        0.2490160       -2.7228430
 H        5.5750380        0.4096850       -1.8424240
 H        4.5322350        1.9946800        3.9595390
