85
Mol_000185_2D_DFT last geometry from G09 out file
 Ru       -0.0720940       -0.3790390        0.6022320
 C       -1.6054130       -1.0335350       -0.1159360
 Cl       -0.7770410       -0.0329630        2.8952940
 Cl        1.3920790       -1.2878890       -1.0985860
 H       -2.3218780       -0.5647850       -0.7928860
 H       -1.7949320       -2.0993660        0.1380210
 C        0.0091470        1.5028970        0.0944730
 N        1.1858840        2.2297100        0.2749780
 N       -0.9614600        2.3655380       -0.3897810
 C        2.2286830        1.8039990        1.2126610
 C        1.0832590        3.6411620       -0.3714580
 C        3.4982530        1.2543330        0.8289890
 C        1.9336920        1.9789760        2.5895260
 C        4.4013550        0.9102330        1.8678620
 C        4.0776720        1.1037570        3.2179240
 H        5.3667030        0.4824970        1.6149250
 C        2.8399520        1.6346060        3.6064400
 H        2.5753710        1.7614170        4.6540900
 C       -0.5130100        3.8536450       -0.2588400
 C       -2.1494140        1.9440890       -1.1115330
 C       -3.4381230        1.7984800       -0.5050340
 C       -1.9899310        1.6728950       -2.4942140
 C       -4.5270830        1.4604110       -1.3513530
 C       -4.3438250        1.2401460       -2.7240160
 H       -5.5222380        1.3559430       -0.9266320
 C       -3.0732770        1.3182980       -3.3177140
 H       -2.9273580        1.1095290       -4.3758780
 Cl       -5.7834950        0.8187990       -3.7522990
 C        1.6137860        3.4745080       -1.8493120
 C        1.8408590        4.7004230       -2.7832810
 H        0.9725170        2.7489190       -2.3687080
 H        2.5820550        2.9787810       -1.7515740
 C        2.7337010        4.3228010       -3.9904100
 H        2.3157440        5.5296930       -2.2399860
 H        0.8929660        5.0923630       -3.1709920
 H        2.2936580        3.4974180       -4.5725300
 H        2.8579700        5.1803810       -4.6700950
 H        3.7374150        4.0030970       -3.6687480
 C        1.8787350        4.7282260        0.4140340
 C        3.4267700        4.8044500        0.3168420
 H        1.6267360        4.6468280        1.4768550
 H        1.4863610        5.6990130        0.0775630
 C        3.9682620        6.0502790        1.0574550
 H        3.7598110        4.8471950       -0.7285830
 H        3.8851750        3.9132750        0.7590010
 H        3.6970890        6.0334770        2.1250230
 H        5.0666710        6.0931440        0.9962660
 H        3.5731890        6.9840210        0.6251330
 C       -1.0743200        4.7649580       -1.3941280
 C       -2.5561810        5.2305560       -1.3728720
 H       -0.9004240        4.2777100       -2.3592680
 H       -0.4530350        5.6723690       -1.3933680
 C       -2.8553660        6.1842410       -2.5539770
 H       -2.7942850        5.7514340       -0.4360150
 H       -3.2359520        4.3736840       -1.4365740
 H       -2.6797090        5.6922840       -3.5238050
 H       -3.9065190        6.5109690       -2.5344060
 H       -2.2247570        7.0874040       -2.5164390
 C       -1.0283310        4.3261160        1.1565610
 C       -0.9075630        5.8086880        1.6209180
 H       -0.5849840        3.6799870        1.9254060
 H       -2.0962460        4.0898890        1.1603310
 C       -1.8702980        6.1046480        2.7964990
 H       -1.1299760        6.5035700        0.7986540
 H        0.1120560        6.0415410        1.9504330
 H       -1.6809100        5.4324190        3.6484210
 H       -1.7462260        7.1387150        3.1544150
 H       -2.9237980        5.9777530        2.5007190
 C        3.9473550        1.0665610       -0.6199800
 C        4.9808200       -0.0512460       -0.8864510
 H        4.3816700        2.0189750       -0.9710930
 H        3.0660450        0.8668940       -1.2362910
 H        4.6266310       -1.0189320       -0.5070380
 H        5.9666980        0.1617830       -0.4466340
 H        5.1274890       -0.1540550       -1.9723890
 H        0.9590850        2.3606970        2.8757100
 Cl        5.2936530        0.6453790        4.4910370
 C       -3.6933080        1.9706890        0.9929380
 C       -4.6604750        0.9460240        1.6352910
 H       -4.1010600        2.9819080        1.1699900
 H       -2.7404200        1.9133560        1.5262570
 H       -5.6885320        1.0274680        1.2533990
 H       -4.6997120        1.1195280        2.7208890
 H       -4.3124680       -0.0842330        1.4793070
 H       -0.9939940        1.7204970       -2.9296550
