73
Mol_000184_2D_DFT last geometry from G09 out file
 Ru        0.2036340       -0.0349140        0.1798640
 C       -1.0220250       -0.9640350       -0.7834880
 Cl       -0.7579220       -0.1234960        2.4026510
 Cl        2.0053350       -0.2007800       -1.4429520
 H       -1.7794450       -0.6069320       -1.4845780
 H       -0.9346150       -2.0676450       -0.6733010
 C       -0.2257400        1.8439720       -0.0834510
 N        0.6601370        2.8133340        0.3607700
 N       -1.3211270        2.4944620       -0.6190180
 C        1.8194120        2.5224420        1.1866320
 C        0.2888200        4.2062150       -0.1750640
 C        3.0943160        2.2827150        0.6216240
 C        1.6811290        2.5006510        2.5953350
 C        4.2028530        2.0354370        1.4539280
 C        4.0795050        2.0132910        2.8652550
 H        5.1735150        1.8409420        0.9936940
 C        2.7960380        2.2501150        3.4174850
 H        2.6605640        2.2269770        4.5005260
 C       -1.3071580        4.0012520       -0.2599290
 C       -2.4476430        1.8425850       -1.2436620
 C       -3.5013310        1.2979530       -0.4715670
 C       -2.5102230        1.7432100       -2.6529340
 C       -4.6050980        0.6937150       -1.1052230
 C       -4.6907340        0.6031860       -2.5176570
 H       -5.4053510        0.2782090       -0.4894260
 C       -3.6178100        1.1351110       -3.2771330
 H       -3.6441790        1.0706060       -4.3668040
 C       -5.8706560       -0.0848520       -3.1939110
 C       -5.6560170       -1.6107310       -3.3954240
 H       -6.0581390        0.3782110       -4.1759760
 H       -6.7824370        0.0671260       -2.5943460
 H       -5.5035890       -2.1215360       -2.4328640
 H       -4.7753650       -1.8092960       -4.0245610
 H       -6.5332350       -2.0615200       -3.8851710
 C        1.0204200        4.3167670       -1.5718730
 C        1.0117440        5.6411090       -2.3815860
 H        2.0705040        4.0778020       -1.3597790
 H        0.6601170        3.5005640       -2.2145340
 H        1.2037340        6.5260510       -1.7616950
 H        0.0746650        5.8138260       -2.9225340
 H        1.8134180        5.5944040       -3.1360050
 C        0.6975180        5.3586140        0.7931840
 C        2.1784240        5.8072410        0.8789870
 H        0.1018200        6.2375580        0.5063800
 H        0.3780220        5.0878690        1.8055590
 H        2.8344710        5.0254810        1.2726080
 H        2.2398820        6.6645680        1.5688110
 H        2.5869790        6.1375530       -0.0834780
 C       -1.9724570        4.8917570       -1.3547710
 C       -3.5172830        4.9746230       -1.4526920
 H       -1.5994120        5.9139830       -1.1958360
 H       -1.5929380        4.5778020       -2.3337200
 H       -3.9870070        5.3493430       -0.5356050
 H       -3.9808830        4.0150790       -1.6998400
 H       -3.7748850        5.6798070       -2.2596460
 C       -2.0666880        4.1027550        1.1213430
 C       -2.3781630        5.4802520        1.7676710
 H       -3.0314540        3.6081440        0.9506250
 H       -1.5387260        3.4752770        1.8528270
 H       -2.7248380        6.2289640        1.0443220
 H       -1.5244050        5.9097790        2.3030890
 H       -3.1844440        5.3458510        2.5064300
 H        3.2118470        2.2522450       -0.4575670
 H        0.7004450        2.6508560        3.0416860
 C        5.2725920        1.6896250        3.7558090
 C        5.4247180        0.1681190        4.0342320
 H        5.1737810        2.2170970        4.7183360
 H        6.1992170        2.0575600        3.2864560
 H        4.5327620       -0.2343490        4.5370260
 H        6.2968300       -0.0206700        4.6798400
 H        5.5629480       -0.3941800        3.0987890
 H       -3.4393030        1.3156760        0.6148380
 H       -1.6874940        2.1286190       -3.2548090
