91
Mol_000183_2D_DFT last geometry from G09 out file
 Ru        0.2272070       -0.0466100       -0.7115000
 C       -1.3049250       -0.9491370       -1.0666150
 Cl        0.6231410       -0.8704320        1.5252380
 Cl        0.8577960        0.4050810       -3.0250270
 H       -2.3384560       -0.6006300       -1.0774620
 H       -1.1411530       -2.0185190       -1.3268640
 C       -0.2366600        1.8125090       -0.3510710
 N        0.7833510        2.7145390       -0.0369740
 N       -1.4144240        2.5152640       -0.5145510
 C        1.9267960        2.3892900        0.8250300
 C        0.3605500        4.1568120       -0.4196760
 C        3.2433140        2.0587020        0.3717040
 C        1.6760920        2.4479010        2.2210960
 C        4.2359270        1.8489790        1.3662940
 C        3.9976980        1.9257160        2.7538130
 H        5.2446050        1.6001740        1.0354420
 C        2.6804530        2.2264930        3.1721470
 H        2.4360340        2.2713750        4.2350160
 C       -1.2370210        4.0347410       -0.2163280
 C       -2.6314400        1.9428400       -1.0739760
 C       -3.6967310        1.4075000       -0.2814120
 C       -2.7308280        1.9146440       -2.4879260
 C       -4.8398890        0.9285120       -0.9760900
 C       -4.9633640        0.9252100       -2.3831050
 H       -5.6671360        0.5270930       -0.3895250
 C       -3.8718020        1.4193590       -3.1374300
 H       -3.9078940        1.4115860       -4.2282460
 C       -6.2039870        0.3602280       -3.0652110
 C       -6.0737480       -1.1460350       -3.4244020
 H       -6.4084240        0.9257770       -3.9886990
 H       -7.0818280        0.4939440       -2.4129560
 H       -6.9896600       -1.5053340       -3.9191550
 H       -5.9112530       -1.7569640       -2.5236390
 H       -5.2278730       -1.3210370       -4.1059010
 C        0.8292740        4.3209990       -1.9195910
 C        0.7522430        5.6895800       -2.6492840
 H        1.8830130        4.0242770       -1.9128870
 H        0.3254090        3.5594980       -2.5289870
 H        1.0977780        6.5293440       -2.0327680
 H       -0.2518680        5.9358940       -3.0119810
 H        1.4087870        5.6467290       -3.5332050
 C        0.9747940        5.2601670        0.4944700
 C        2.4697380        5.6406390        0.3679230
 H        0.3878640        6.1702020        0.3053280
 H        0.7967010        4.9922520        1.5403840
 H        2.7546510        5.9459840       -0.6456130
 H        3.1352430        4.8320670        0.6814980
 H        2.6634410        6.4990220        1.0315050
 C       -2.0268530        4.9395810       -1.2165270
 C       -3.5612370        5.1045650       -1.0744300
 H       -1.5841840        5.9422010       -1.1352940
 H       -1.8215520        4.5986810       -2.2364360
 H       -4.1061260        4.1669970       -1.2161850
 H       -3.9050890        5.8026720       -1.8548870
 H       -3.8611940        5.5304680       -0.1092260
 C       -1.7536260        4.2547860        1.2552510
 C       -1.8677440        5.6773910        1.8713630
 H       -2.7628330        3.8367050        1.2576090
 H       -1.1672020        3.6214770        1.9335440
 H       -2.2482090        6.4246270        1.1638960
 H       -0.9210500        6.0543970        2.2725450
 H       -2.5786810        5.6376240        2.7123920
 C        3.6576920        1.8776890       -1.0992260
 C        4.2244870        0.4512900       -1.3628070
 C        4.6903000        2.9425930       -1.5709120
 H        2.7649470        1.9789230       -1.7243680
 H        3.5384160       -0.3284080       -1.0072680
 H        5.1956140        0.2989490       -0.8685800
 H        4.3658740        0.3030240       -2.4431650
 H        4.9188610        2.7906830       -2.6372060
 H        5.6361110        2.8648300       -1.0139840
 H        4.3158650        3.9673330       -1.4487520
 H        0.6630560        2.6487300        2.5617660
 C        5.1024710        1.6362990        3.7624720
 C        5.1630580        0.1411680        4.1822830
 H        4.9528170        2.2509120        4.6652150
 H        6.0788090        1.9260110        3.3414670
 H        5.3487210       -0.5069710        3.3130280
 H        4.2162880       -0.1817650        4.6397920
 H        5.9713870       -0.0228400        4.9123990
 C       -3.6694690        1.2755330        1.2542110
 C       -3.6916180       -0.2081040        1.7270720
 C       -4.8321840        2.0581850        1.9331140
 H       -2.7228180        1.6936530        1.6131920
 H       -4.5923280       -0.7365430        1.3810260
 H       -3.6852220       -0.2441600        2.8274590
 H       -2.8082750       -0.7552510        1.3782810
 H       -4.8806100        3.1052770        1.6019000
 H       -4.7019140        2.0517060        3.0263420
 H       -5.8078770        1.5992040        1.7157150
 H       -1.8841150        2.2602560       -3.0767150
