91
Mol_000186_2D_DFT last geometry from G09 out file
 Ru        0.0485720        0.1866960        0.1723220
 C       -1.3785690       -0.6819140       -0.5361810
 Cl       -0.5107500        0.0384520        2.5280770
 Cl        1.5059110       -0.1574670       -1.7358300
 H       -2.2415930       -0.2853540       -1.0738280
 H       -1.3225730       -1.7887060       -0.4404070
 C       -0.3011390        2.0924700       -0.0703210
 N        0.7091210        3.0220800        0.1703830
 N       -1.4530480        2.7794610       -0.4164670
 C        1.8618430        2.7201020        1.0273430
 C        0.2880450        4.4427010       -0.2931680
 C        3.1978880        2.4920500        0.5571420
 C        1.6056440        2.6857760        2.4218390
 C        4.1904030        2.2315730        1.5371350
 C        3.9389180        2.1877300        2.9269550
 H        5.2098530        2.0518060        1.2004230
 C        2.6158440        2.4259640        3.3598850
 H        2.3658040        2.3931540        4.4214660
 C       -1.3095920        4.3034120       -0.1262170
 C       -2.5675700        2.2057260       -1.1549800
 C       -3.7761800        1.7450840       -0.5442890
 C       -2.4248900        2.1248090       -2.5629240
 C       -4.8121210        1.3027050       -1.4088550
 C       -4.6924820        1.2488030       -2.8160360
 H       -5.7510480        0.9756970       -0.9615810
 C       -3.4612220        1.6532710       -3.3851690
 H       -3.3117620        1.6048060       -4.4653310
 C       -5.8310150        0.7260580       -3.6842700
 C       -5.7482000       -0.8031160       -3.9481350
 H       -5.8297080        1.2513490       -4.6530160
 H       -6.7976680        0.9502240       -3.2054440
 H       -5.7881900       -1.3715450       -3.0068000
 H       -4.8117370       -1.0686520       -4.4611300
 H       -6.5878560       -1.1314550       -4.5805470
 C        0.7772400        4.5664960       -1.7885570
 C        0.6939430        5.9143970       -2.5564610
 H        1.8312960        4.2828180       -1.7673720
 H        0.2821910        3.7858450       -2.3821160
 H        1.0237290        6.7718360       -1.9562380
 H       -0.3075530        6.1427510       -2.9366470
 H        1.3625850        5.8569990       -3.4306010
 C        0.8780830        5.5752460        0.6019510
 C        2.3711910        5.9691270        0.4801310
 H        0.2821400        6.4746120        0.3909500
 H        0.6939870        5.3231010        1.6514060
 H        2.5455060        6.8569310        1.1093280
 H        2.6693590        6.2343600       -0.5411210
 H        3.0417770        5.1833790        0.8390280
 C       -2.0939640        5.1969400       -1.1373300
 C       -3.6337870        5.3298680       -1.0265880
 H       -1.6714980        6.2073710       -1.0434910
 H       -1.8659370        4.8637060       -2.1547640
 H       -3.9724160        6.0520270       -1.7871510
 H       -3.9662290        5.7089750       -0.0527730
 H       -4.1549910        4.3880640       -1.2201650
 C       -1.8510290        4.5071000        1.3416250
 C       -2.0018180        5.9258200        1.9576100
 H       -2.8498960        4.0627730        1.3354760
 H       -1.2584190        3.8846390        2.0244510
 H       -2.4171790        6.6597080        1.2554370
 H       -1.0631760        6.3346500        2.3465430
 H       -2.6993600        5.8624810        2.8083460
 C        3.6074670        2.5738780       -0.9144260
 C        4.8087500        1.7010330       -1.3605950
 H        3.8567340        3.6252590       -1.1469850
 H        2.7499320        2.3015060       -1.5368160
 C        5.0418480        1.7802240       -2.8860390
 H        4.6221370        0.6545600       -1.0760200
 H        5.7334240        2.0176280       -0.8505100
 H        5.2411800        2.8150000       -3.2115710
 H        5.9066420        1.1658350       -3.1822790
 H        4.1645870        1.4115370       -3.4382180
 H        0.5881520        2.8346200        2.7707860
 C        5.0471300        1.8495180        3.9162440
 C        5.1569660        0.3262570        4.2046120
 H        4.8698910        2.3768320        4.8676740
 H        6.0156000        2.2076730        3.5312510
 H        4.2188030       -0.0667660        4.6236610
 H        5.9651430        0.1268340        4.9259330
 H        5.3728880       -0.2366610        3.2842800
 C       -3.9961810        1.7015000        0.9691060
 C       -4.6369990        0.3998300        1.5270610
 H       -4.6460230        2.5466000        1.2621300
 H       -3.0387740        1.8423230        1.4793270
 C       -4.7807600        0.4399420        3.0647960
 H       -4.0117050       -0.4616010        1.2466170
 H       -5.6309240        0.2325960        1.0818530
 H       -3.7989330        0.5431420        3.5493090
 H       -5.4153570        1.2815250        3.3886350
 H       -5.2414530       -0.4881430        3.4379070
 H       -1.4791730        2.4236520       -3.0117740
