57
M00000441_2D_DFT last geometry from G09 out file
 Ru       -0.6708500        0.5167030        0.9852280
 C       -1.2444870       -0.4209740       -0.4815880
 Cl       -2.8347590        1.1074970        1.9714950
 Cl        1.5416840       -0.5618080        0.9018660
 H       -1.2450610       -0.1311990       -1.5392160
 H       -1.5711070       -1.4670270       -0.2997690
 C       -0.3320170        2.2388690        0.1941660
 N        0.6931390        3.1051110        0.6028690
 N       -1.1252710        2.9650270       -0.6884320
 C        0.5322640        4.5023640        0.0704370
 C        1.9873980        2.7705430        1.1521230
 C        0.5076460        5.5689090        1.2070360
 C       -0.7873490        4.4243420       -0.7492720
 H        1.3720500        4.7270420       -0.6000190
 C       -0.7913460        5.5442180        1.9857490
 H        1.3773990        5.4286600        1.8630390
 H        0.6443450        6.5545440        0.7238810
 C       -1.9589130        5.4194940        1.3097010
 H       -0.7633120        5.5916510        3.0762110
 C       -1.9268880        5.3422370       -0.2028500
 H       -2.9168210        5.3602450        1.8293660
 H       -2.8912890        5.0175470       -0.6134330
 H       -1.7437830        6.3498490       -0.6215260
 H       -0.5949470        4.6877430       -1.7958640
 C        2.2072960        2.4340480        2.5189470
 C        3.1094390        2.9166370        0.3018100
 C        3.5325900        2.3057590        3.0062440
 C        4.6363510        2.4745430        2.1537660
 H        3.6820350        2.0470000        4.0528650
 C        4.4196890        2.7644930        0.7897430
 H        5.2648330        2.8615490        0.1064260
 C       -2.0959890        2.4584670       -1.6274010
 C       -1.7235040        2.1231730       -2.9710130
 C       -3.4446290        2.3313500       -1.2313120
 C       -2.7309760        1.6903170       -3.8727970
 C       -4.0755470        1.5916550       -3.4708420
 H       -2.4448550        1.4236190       -4.8878990
 C       -4.4304760        1.9024290       -2.1423760
 H       -5.4645250        1.8049730       -1.8087400
 C        1.0747440        2.0847120        3.4102700
 O        1.2783000        2.4474020        4.7312520
 O        0.0339570        1.4813250        3.0495470
 C        0.2283530        2.0346680        5.6992470
 H        0.5488920        2.4697600        6.6514380
 H       -0.7498910        2.4229420        5.3880760
 H        0.1819150        0.9387840        5.7582780
 H        2.9460270        3.1248570       -0.7548300
 H        5.6489710        2.3595940        2.5417340
 C       -0.3026000        2.1832470       -3.4513070
 O       -0.0800630        1.2466760       -4.4656940
 O        0.6048000        2.9420860       -3.0375560
 C        1.2929690        1.1812730       -5.0165380
 H        1.2429640        0.4041750       -5.7864920
 H        1.5824700        2.1488710       -5.4492160
 H        2.0041750        0.9046180       -4.2265070
 H       -3.6980050        2.5272100       -0.1932530
 H       -4.8328340        1.2625020       -4.1835710
