64
M00000443_2D_DFT last geometry from G09 out file
 Ru       -0.3638900       -0.1564060        0.0762700
 C        1.4366060       -0.3653460        0.2184280
 Cl       -0.6336420       -0.7737180       -2.2311920
 Cl       -1.0115090       -0.5387640        2.3629110
 H        2.2185660        0.3977390        0.2305590
 H        1.7735490       -1.4207160        0.2929320
 C       -0.6010960        1.7665770        0.0577630
 N        0.2559490        2.7978290        0.4102500
 N       -1.8585080        2.3576420       -0.2327300
 C       -0.3874820        4.1380530        0.3329550
 C        1.6858480        2.7990750        0.6896670
 C       -1.8738500        3.8102270        0.0654910
 H        0.0476300        4.7312730       -0.4834800
 H       -0.2348350        4.6878170        1.2664070
 H       -2.2664560        4.3750630       -0.7859680
 C        2.1574160        2.8460080        2.0366620
 C        2.5810380        2.8781790       -0.4251210
 C        3.5580060        2.9583390        2.2350230
 C        4.4536300        3.0265570        1.1557100
 H        3.9492090        2.9925770        3.2509120
 C        3.9661370        2.9853970       -0.1654640
 H        4.6621030        3.0382680       -1.0036770
 C       -2.9449840        1.7663970       -1.0279790
 C       -3.0043300        2.0388140       -2.4377020
 C       -3.9570350        0.9939150       -0.3825290
 C       -4.0688210        1.4729740       -3.1752370
 C       -5.0418990        0.6631180       -2.5644740
 H       -4.1313840        1.6561870       -4.2471210
 C       -4.9842710        0.4339190       -1.1822180
 H       -5.7503230       -0.1741230       -0.6978960
 C       -2.0065530        2.9452200       -3.1855000
 C       -2.6784150        4.2861510       -3.6157560
 C       -1.3606000        2.2610820       -4.4232230
 H       -1.1801600        3.1856380       -2.5049750
 H       -3.1585630        4.8107360       -2.7756610
 H       -3.4581980        4.1097600       -4.3705150
 H       -1.9319090        4.9631560       -4.0602100
 H       -0.5960860        2.9242250       -4.8588070
 H       -2.1007550        2.0558730       -5.2097690
 H       -0.8854150        1.3132530       -4.1474890
 C       -4.0475500        0.7673790        1.1169620
 H       -3.1937520        1.1521140        1.6729650
 H       -4.1231610       -0.3051530        1.3438920
 H       -4.9566080        1.2501190        1.5082440
 C       -2.7750780        4.2391080        1.2533370
 F       -4.1438970        4.0329880        1.0084430
 F       -2.4672900        3.6148170        2.4770840
 F       -2.6207060        5.6401200        1.4653170
 H       -5.8427750        0.2242190       -3.1617740
 C        1.2287880        2.7993240        3.2612490
 C        1.2016800        4.1680220        4.0050960
 C        1.6070870        1.6578490        4.2463280
 H        0.2105930        2.5864470        2.9149190
 H        0.9270590        4.9996160        3.3388180
 H        2.1815470        4.4071240        4.4447540
 H        0.4652300        4.1354650        4.8220490
 H        0.8657860        1.6102440        5.0577970
 H        2.5942880        1.8172540        4.7049370
 H        1.6073970        0.6831190        3.7430070
 C        2.0972600        2.8292980       -1.8659910
 H        1.4405390        3.6775490       -2.1123100
 H        1.5348600        1.9110870       -2.0803580
 H        2.9488730        2.8690840       -2.5572680
 H        5.5259100        3.1128470        1.3392530
