99
M00000440_2D_DFT last geometry from G09 out file
 Ru        0.3819950        0.1237020       -0.5345040
 C       -1.1740300       -0.7310430       -0.9047960
 Cl        0.7184620       -0.7485040        1.6996720
 Cl        1.2167390        0.3165000       -2.8080430
 H       -2.1959020       -0.3515180       -0.8827400
 H       -1.0509130       -1.8053770       -1.1641450
 C       -0.0198430        2.0331410       -0.3246070
 N        0.9919930        2.8859700        0.1273670
 N       -1.1180610        2.7966360       -0.7002310
 C        0.6335010        4.3649380       -0.0612470
 C        2.0550930        2.4322020        1.0491780
 C       -0.8603950        4.3074560       -0.5971100
 H        0.6532440        4.8324530        0.9318850
 H       -0.8590370        4.6926010       -1.6241110
 C        1.8386910        2.5551420        2.4617250
 C        3.2787480        1.7998940        0.6312020
 C        2.8315150        2.1601690        3.3793290
 C        4.0624860        1.5791010        2.9840520
 H        2.5949560        2.2504830        4.4357620
 C        4.2261720        1.3742970        1.5896000
 H        5.1193620        0.8761570        1.2289700
 C       -2.3023370        2.2588560       -1.3616950
 C       -2.4244810        2.3480340       -2.7873120
 C       -3.4038160        1.6956750       -0.6230870
 C       -3.6009960        1.9016950       -3.4224180
 C       -4.7072410        1.3562270       -2.7147760
 H       -3.6452960        1.9719140       -4.5028460
 C       -4.5704590        1.2712200       -1.3032650
 H       -5.3740930        0.8401270       -0.7189420
 C       -1.3115980        2.9367190       -3.6568980
 C       -1.2117390        2.4222540       -5.1108010
 H       -0.3517790        2.7447540       -3.1737260
 H       -1.4373590        4.0338440       -3.6924100
 H       -0.3033060        2.8351420       -5.5747940
 H       -2.0631410        2.7281640       -5.7381880
 H       -1.1258860        1.3273370       -5.1382820
 C       -3.4053970        1.4626270        0.8736290
 C       -4.7482890        1.3791360        1.6189340
 O       -2.3441540        1.3220190        1.5342610
 H       -5.2109170        0.3879470        1.4838110
 H       -4.5452730        1.5025620        2.6892620
 H       -5.4685250        2.1398490        1.2879280
 C        1.6781010        5.1844060       -0.9665750
 C        3.0452290        5.2700300       -0.2190540
 C        1.8472650        4.5705330       -2.3845670
 C        1.2489450        6.6683600       -1.1853140
 H        3.5621030        4.3138430       -0.1815930
 H        2.9151440        5.6490140        0.8074880
 H        3.7051900        5.9730310       -0.7494910
 H        0.9989130        4.8337680       -3.0321940
 H        1.9593230        3.4872720       -2.3651640
 H        2.7535500        4.9769350       -2.8549660
 H        1.1885680        7.2387190       -0.2490380
 H        0.2991040        6.7653250       -1.7223180
 H        2.0173500        7.1484680       -1.8094540
 N       -5.8639770        0.9220240       -3.3720840
 C       -5.9489000        0.9792150       -4.8388130
 C       -6.9837540        0.3539470       -2.6092520
 H       -5.1629820        0.3726330       -5.3217390
 H       -5.8629450        2.0134070       -5.2150260
 H       -6.9193120        0.5874980       -5.1642220
 H       -6.6969160       -0.5691120       -2.0738830
 H       -7.8011430        0.0999850       -3.2935440
 H       -7.3809990        1.0702190       -1.8691590
 C       -1.9966580        5.1778010        0.1521090
 C       -2.3300600        4.7185560        1.5973840
 C       -1.5861020        6.6782380        0.2791670
 C       -3.3026100        5.1950390       -0.7091770
 H       -3.2803420        5.1761450        1.9131770
 H       -1.5655240        5.0562330        2.3057220
 H       -2.4239830        3.6396450        1.6944200
 H       -2.3773910        7.1992910        0.8389560
 H       -1.4935110        7.1783160       -0.6920810
 H       -0.6539180        6.8163890        0.8366910
 H       -3.9813060        5.9679800       -0.3175000
 H       -3.8445300        4.2474410       -0.6964440
 H       -3.0898940        5.4500140       -1.7584850
 C        0.5197250        3.0022780        3.0884950
 C        0.6225330        4.2574450        3.9941030
 H        0.1456060        2.1609860        3.6935340
 H       -0.2361480        3.1541320        2.3222480
 H        0.9695340        5.1411160        3.4364400
 H        1.3223020        4.1042530        4.8281070
 H       -0.3597530        4.4937220        4.4317200
 C        3.8082250        1.5569130       -0.7824700
 C        4.3600910        0.1634070       -1.1138410
 O        3.9162280        2.4794280       -1.6260040
 H        5.4567190        0.1634940       -0.9959600
 H        3.9359780       -0.6269080       -0.4848150
 H        4.1416030       -0.0450940       -2.1665030
 N        5.0422110        1.1999640        3.9094380
 C        4.7888250        1.3376480        5.3502750
 C        6.2443700        0.4816590        3.4640870
 H        5.6905880        1.0585100        5.9079250
 H        3.9614360        0.6913280        5.6968680
 H        4.5442560        2.3792490        5.6161960
 H        6.8153600        1.0695080        2.7260880
 H        6.0053800       -0.4988230        3.0127670
 H        6.9025060        0.3040700        4.3226340
