55
M00000442_2D_DFT last geometry from G09 out file
 Ru        0.0805630        0.0822080        0.4163870
 C       -0.8793890       -0.6135400       -0.9610090
 Cl       -1.4553690        0.1191610        2.2858120
 Cl        2.2724810       -0.3236150       -0.5181250
 H       -1.2544350       -0.1048990       -1.8548500
 H       -1.0328810       -1.7128350       -0.9197780
 C       -0.0270030        1.9851800        0.0530580
 N        0.9647950        2.8462890        0.5037570
 N       -0.9721250        2.7524550       -0.6127050
 C        0.7857950        4.2559980        0.0180730
 C        1.8992230        2.5531190        1.5751990
 C       -0.6541860        4.2283470       -0.5843770
 H        0.8077610        4.9162290        0.8980530
 H       -0.6313500        4.5870950       -1.6216270
 C        1.4106530        2.3824310        2.8942370
 C        3.2916980        2.4949000        1.3328010
 C        2.3095310        2.1527190        3.9567200
 C        3.6990800        2.1120780        3.7166070
 H        1.9204180        2.0053800        4.9653920
 C        4.1846090        2.2819810        2.4015180
 H        5.2557280        2.2236590        2.2019110
 C       -2.1252820        2.2798270       -1.3452950
 C       -2.1827840        2.4625840       -2.7480920
 C       -3.2117750        1.6718260       -0.6733630
 C       -3.3211780        2.0500590       -3.4710720
 C       -4.4063820        1.4428680       -2.8016420
 H       -3.3538290        2.1916830       -4.5527140
 C       -4.3418680        1.2507250       -1.4040380
 H       -5.1702990        0.7735340       -0.8779990
 H       -1.3374470        2.9054140       -3.2749630
 H       -3.1582940        1.5078050        0.3999640
 C        1.9218040        4.7446030       -0.9440470
 C        1.7581970        6.2546320       -1.2602890
 C        2.0810960        3.9023900       -2.2325980
 H        2.8563800        4.6478580       -0.3682490
 H        2.6203220        6.6123480       -1.8427960
 H        1.7055720        6.8594700       -0.3411270
 H        0.8550190        6.4610330       -1.8546450
 H        2.9827630        4.2198250       -2.7782740
 H        1.2297040        4.0298200       -2.9185160
 H        2.1835720        2.8323030       -2.0096840
 H       -5.2855350        1.1198510       -3.3613220
 C       -1.6642800        5.1473960        0.1962680
 C       -2.0046460        4.6591710        1.6252870
 C       -2.9475420        5.4879680       -0.6055150
 H       -1.1090470        6.0986760        0.2988920
 H       -2.6327720        5.4061790        2.1335530
 H       -1.1070110        4.5136350        2.2419330
 H       -2.5578990        3.7118480        1.6112770
 H       -2.7091320        5.8354980       -1.6231990
 H       -3.4963000        6.2979570       -0.1006000
 H       -3.6270210        4.6318760       -0.6920480
 H        0.3398070        2.4067840        3.0835270
 H        3.6680370        2.5587510        0.3151880
 H        4.3937530        1.9360670        4.5395420
