79
Mol_000075_2D_DFT last geometry from G09 out file
 Ru        0.0802640       -0.4907350        0.7722350
 C       -1.3596610       -1.2430620       -0.0392860
 Cl       -0.8317780        0.0266870        2.9599530
 Cl        1.7386240       -1.5073800       -0.6634280
 H       -2.0093600       -0.8439830       -0.8208180
 H       -1.5556740       -2.2911230        0.2746330
 C        0.1272230        1.3605330        0.1556990
 N        1.2500010        2.1520710        0.3838380
 N       -0.8551960        2.1634940       -0.4052220
 C        2.3032120        1.7603710        1.3186920
 C        1.1016430        3.5622200       -0.2536940
 C        3.5780320        1.2487730        0.9189640
 C        2.0200410        1.9196930        2.7007600
 C        4.5109680        0.9241000        1.9386140
 C        4.2022200        1.1019200        3.2942530
 H        5.4823740        0.5217180        1.6550550
 C        2.9523010        1.5944240        3.7005290
 H        2.7002840        1.7081360        4.7529290
 C       -0.5082730        3.6727140       -0.2338280
 C       -1.9488900        1.6695080       -1.2208410
 C       -3.2724330        1.4532040       -0.7269560
 C       -1.6579960        1.3876750       -2.5804810
 C       -4.2625590        1.0165930       -1.6471350
 C       -3.9507580        0.7822440       -2.9944310
 H       -5.2779020        0.8470770       -1.2910070
 C       -2.6426800        0.9442090       -3.4814810
 H       -2.3947490        0.7289360       -4.5192080
 Cl       -5.2615680        0.2290080       -4.1251320
 C        1.7392340        3.4561420       -1.6931610
 C        1.9231610        4.7072770       -2.6034010
 H        1.1982360        2.6843570       -2.2584160
 H        2.7390940        3.0470120       -1.5303420
 C        2.9427820        4.4292850       -3.7346340
 H        2.2698480        5.5728950       -2.0211630
 H        0.9762270        5.0095130       -3.0663140
 H        2.6340530        3.5698770       -4.3510080
 H        3.0359860        5.3006250       -4.4016320
 H        3.9441820        4.2071540       -3.3334000
 C        1.7840670        4.6801940        0.5941850
 C        3.3279720        4.8492850        0.5768660
 H        1.4828440        4.5598910        1.6404040
 H        1.3508520        5.6331830        0.2568980
 C        3.7616120        6.0758580        1.4142760
 H        3.7026390        4.9766160       -0.4477050
 H        3.8200590        3.9590650        0.9840690
 H        3.4505550        5.9755420        2.4662000
 H        4.8567410        6.1881320        1.4026160
 H        3.3262520        7.0096810        1.0227150
 C       -1.0607990        4.5632440       -1.3886090
 C       -2.5684570        4.9324750       -1.4473980
 H       -0.8020760        4.1005970       -2.3471390
 H       -0.5002470        5.5082580       -1.3433080
 C       -2.8607010        5.8880560       -2.6286870
 H       -2.8939090        5.4177330       -0.5177440
 H       -3.1854250        4.0347150       -1.5656620
 H       -2.5967260        5.4280210       -3.5942060
 H       -3.9304670        6.1454450       -2.6664180
 H       -2.2943310        6.8293090       -2.5391500
 C       -1.1279150        4.0840290        1.1594870
 C       -1.1352590        5.5629540        1.6492810
 H       -0.6801640        3.4556370        1.9405510
 H       -2.1746800        3.7716460        1.1050080
 C       -2.1753170        5.7710100        2.7769010
 H       -1.3631260        6.2552870        0.8262090
 H       -0.1525700        5.8600250        2.0350990
 H       -1.9847570        5.0965900        3.6267130
 H       -2.1412730        6.8041430        3.1568270
 H       -3.2009020        5.5785710        2.4239230
 C        4.0330740        1.0398810       -0.5136360
 H        4.6298600        1.8986640       -0.8628010
 H        3.1962550        0.8842430       -1.1956510
 H        4.6727290        0.1507560       -0.5801080
 H        1.0388760        2.2727750        3.0020860
 Cl        5.4438850        0.6700060        4.5495860
 C       -3.6876900        1.6183900        0.7241920
 H       -4.1549150        2.6011520        0.8969030
 H       -2.8456630        1.5082840        1.4112450
 H       -4.4364350        0.8599520        0.9924630
 H       -0.6351830        1.4982420       -2.9349160
