73
Mol_000072_2D_DFT last geometry from G09 out file
 Ru        0.4319710       -0.3181280        0.8183270
 C       -0.7780580       -1.2039390       -0.2068080
 Cl       -0.7275150        0.0986160        2.9053980
 Cl        2.3768230       -1.0261910       -0.4429740
 H       -1.3032260       -0.8559070       -1.1016180
 H       -0.9286880       -2.2701080        0.0668720
 C        0.2816700        1.5275900        0.2115840
 N        1.3064080        2.4220040        0.4792060
 N       -0.7270780        2.2208360       -0.4404870
 C        2.4283320        2.1217150        1.3464970
 C        1.1249920        3.7519760       -0.2541900
 C        3.7066580        1.8099140        0.8221600
 C        2.2470960        2.1703220        2.7511790
 C        4.7937350        1.5675520        1.6819020
 C        4.5775880        1.6299940        3.0679500
 H        5.7767720        1.3093370        1.2912300
 C        3.3228300        1.9169350        3.6256790
 H        3.1902220        1.9357800        4.7062900
 C       -0.4841560        3.7548270       -0.3737100
 C       -1.9853470        1.6393070       -0.8557490
 C       -2.9195570        1.1707780        0.1027280
 C       -2.2921260        1.5156290       -2.2327920
 C       -4.1451320        0.6080120       -0.3019890
 C       -4.4241510        0.5263410       -1.6756400
 H       -4.8631800        0.2378650        0.4284660
 C       -3.5198670        0.9652880       -2.6549460
 H       -3.7638180        0.8672300       -3.7118420
 F       -5.6501900       -0.0260450       -2.0872880
 C        1.9024280        3.6987410       -1.6233850
 C        1.7433500        2.5007370       -2.5943750
 H        2.9693880        3.7482520       -1.3701160
 H        1.6917570        4.6329230       -2.1659640
 C        2.7197610        2.6130220       -3.7891480
 H        0.7201690        2.4341980       -2.9861660
 H        1.9332310        1.5560270       -2.0696250
 H        3.7689440        2.6273680       -3.4524960
 H        2.6035600        1.7531140       -4.4665520
 H        2.5452500        3.5296120       -4.3762820
 C        1.6459910        4.9712490        0.5965470
 C        3.1352930        5.4054720        0.5252140
 H        1.4012580        4.7842150        1.6500840
 H        1.0589780        5.8500200        0.2994280
 C        3.4260400        6.5487320        1.5258660
 H        3.3842780        5.7581880       -0.4875540
 H        3.8075510        4.5665960        0.7441990
 H        3.2498790        6.2279460        2.5646740
 H        4.4751360        6.8741930        1.4515330
 H        2.7898490        7.4279370        1.3330810
 C       -1.0438540        4.4713040       -1.6394630
 C       -0.8879420        6.0142420       -1.7294670
 H       -2.1171410        4.2477310       -1.7006630
 H       -0.5938580        4.0358360       -2.5383120
 C       -1.6026700        6.5817600       -2.9779520
 H        0.1738010        6.2968840       -1.7780310
 H       -1.3004160        6.5013980       -0.8339500
 H       -2.6829120        6.3676480       -2.9550150
 H       -1.4798270        7.6742380       -3.0378080
 H       -1.1960410        6.1493330       -3.9060590
 C       -1.1695530        4.2937740        0.9456460
 C       -2.7046430        4.5276820        0.9645290
 H       -0.7172390        5.2580620        1.2051470
 H       -0.9109570        3.6046070        1.7624450
 C       -3.1857400        4.9532000        2.3720420
 H       -3.2539010        3.6303220        0.6621690
 H       -2.9797180        5.3170640        0.2486210
 H       -2.9845500        4.1688100        3.1186300
 H       -2.6831350        5.8738630        2.7105380
 H       -4.2698540        5.1459010        2.3735610
 H        3.8462230        1.7164170       -0.2501480
 H        1.2627790        2.3820750        3.1610950
 F        5.6606850        1.3849810        3.9305130
 H       -2.6750930        1.2185240        1.1603170
 H       -1.5683470        1.8283750       -2.9808840
