71
Mol_000073_2D_DFT last geometry from G09 out file
 Ru        0.0194110       -0.2217330        0.7060690
 C       -1.4522410       -0.9890530       -0.0415600
 Cl       -0.7041230       -0.0361850        2.9921600
 Cl        1.6477580       -1.0387160       -0.8477680
 H       -2.1972760       -0.5304540       -0.6944180
 H       -1.5714250       -2.0704130        0.1780810
 C       -0.1559080        1.6111160        0.2327540
 N        0.8840780        2.5345140        0.5377660
 N       -1.2325240        2.3712700       -0.2881730
 C        2.1897680        2.2025260        1.1084140
 C        0.3997290        3.8814760        0.5034290
 C        3.3899960        2.2390820        0.3327830
 C        2.2477850        1.9012880        2.4898790
 C        4.5937860        1.9126580        0.9906540
 C        4.6717160        1.5605400        2.3729320
 H        5.5047730        1.9352780        0.4012080
 C        3.4531240        1.5772480        3.1196260
 H        3.4347560        1.3417310        4.1801150
 C       -0.8992120        3.7678670       -0.3551990
 C       -2.4259430        1.9005700       -0.9790440
 C       -3.7050810        1.8403700       -0.3531630
 C       -2.2868590        1.5608090       -2.3461000
 C       -4.7975450        1.4246830       -1.1464650
 C       -4.6834260        1.0731090       -2.5263470
 H       -5.7711530        1.3784240       -0.6687990
 C       -3.3799440        1.1483280       -3.1140580
 H       -3.2164110        0.8976650       -4.1585280
 N       -5.7949300        0.6721500       -3.2728250
 C       -5.6478910        0.3272910       -4.6952060
 C       -7.1279450        0.6146180       -2.6551620
 H       -5.2759910        1.1800730       -5.2892670
 H       -6.6223300        0.0364570       -5.1033550
 H       -4.9570560       -0.5207120       -4.8422360
 H       -7.8609480        0.2801360       -3.3978340
 H       -7.4529440        1.6023230       -2.2843500
 H       -7.1590710       -0.0959850       -1.8111270
 F        1.3169270        4.8174770       -0.0111850
 F        0.0833690        4.3846640        1.8184730
 F       -0.6397730        4.2054340       -1.7027900
 F       -1.9334920        4.6179670        0.0919530
 C        3.4454380        2.6579550       -1.1490340
 C        4.1003550        1.5874340       -2.0662070
 C        4.1743620        4.0241370       -1.3229020
 H        2.4134780        2.7912640       -1.5017930
 H        5.1675000        1.4489010       -1.8361670
 H        4.0307940        1.9105560       -3.1168790
 H        3.5994920        0.6180750       -1.9698550
 H        4.1064600        4.3534500       -2.3714350
 H        5.2413570        3.9413270       -1.0667260
 H        3.7328950        4.8052680       -0.6919380
 H        1.3337920        1.9180720        3.0776680
 N        5.8889260        1.2244400        2.9722470
 C        5.9391680        0.8764280        4.4002000
 C        7.1284030        1.1948330        2.1826410
 H        6.9712230        0.6400550        4.6830570
 H        5.3169440       -0.0060240        4.6293270
 H        5.5992090        1.7103940        5.0382550
 H        7.0614750        0.4823060        1.3424550
 H        7.9612450        0.8790890        2.8211890
 H        7.3799340        2.1881850        1.7712420
 C       -3.9426690        2.1972730        1.1248350
 C       -4.5009140        0.9953920        1.9388670
 C       -4.8672460        3.4392390        1.2783690
 H       -2.9736580        2.4574030        1.5701360
 H       -3.8323740        0.1268350        1.8817960
 H       -5.4987900        0.6908860        1.5888340
 H       -4.5892530        1.2751190        2.9994030
 H       -4.9365650        3.7231820        2.3396610
 H       -5.8874370        3.2336250        0.9204870
 H       -4.4772710        4.3011000        0.7213570
 H       -1.3021140        1.6179080       -2.8094270
