73
Mol_000289_2D_DFT last geometry from G09 out file
 Ru        0.3119510        0.0365060       -0.1245430
 C       -1.2230960       -0.7927560       -0.6179000
 Cl        0.1780530       -0.3003640        2.2643770
 Cl        1.3831310       -0.1144620       -2.3063760
 H       -2.1733290       -0.3734500       -0.9525520
 H       -1.1469420       -1.9025630       -0.6075210
 C       -0.0013480        1.9590090       -0.1732070
 N        1.0454200        2.8297670        0.1593200
 N       -1.0875010        2.7189980       -0.5755520
 C        0.7352510        4.2638570       -0.2359660
 C        2.0217240        2.5544010        1.2282380
 C       -0.8048420        4.2191080       -0.5432490
 H        0.9237440        4.8869790        0.6464140
 H       -0.9850270        4.5872660       -1.5606710
 C        1.6507600        2.9687400        2.5338710
 C        3.2885320        1.9349550        1.0368490
 C        2.4960220        2.7962330        3.6364680
 C        3.7591910        2.1746000        3.4777450
 H        2.1627850        3.1171550        4.6253300
 C        4.1171290        1.7621970        2.1795690
 H        5.0843460        1.2770830        2.0304450
 C       -2.2236350        2.2160880       -1.3410460
 C       -2.1520810        2.3091020       -2.7519740
 C       -3.3921310        1.6750240       -0.7316490
 C       -3.2263300        1.9192630       -3.5675150
 C       -4.4172000        1.4122110       -2.9913810
 H       -3.1320720        1.9951000       -4.6524910
 C       -4.4613950        1.2912470       -1.5845280
 H       -5.3581130        0.8746750       -1.1212140
 H       -1.2329300        2.6651760       -3.2125020
 C       -3.5478770        1.4546270        0.7658390
 H       -4.0097060        2.3243990        1.2576570
 H       -2.5921150        1.2576050        1.2600060
 H       -4.2057800        0.5954830        0.9579170
 C        1.6662330        4.8385290       -1.4026110
 C        3.1251080        4.9814190       -0.8730990
 C        1.6497490        3.9461570       -2.6743610
 C        1.2174370        6.2733420       -1.8193770
 H        3.1602410        5.5834000        0.0483330
 H        3.7446260        5.4920780       -1.6255930
 H        3.5907210        4.0184160       -0.6625830
 H        0.6863580        4.0052540       -3.2008230
 H        1.8491880        2.8939860       -2.4543670
 H        2.4185040        4.2951150       -3.3800770
 H        1.2802200        6.9875150       -0.9874210
 H        0.1987060        6.3046320       -2.2268650
 H        1.8899430        6.6338810       -2.6119030
 C       -5.5910320        0.9957380       -3.8620030
 H       -6.4116290        0.5733620       -3.2665530
 H       -5.2891770        0.2386190       -4.6030340
 H       -5.9933860        1.8537560       -4.4247220
 C       -1.7587870        5.0890470        0.4033840
 C       -1.7905150        4.5812130        1.8718990
 C       -1.2866910        6.5769880        0.4324960
 C       -3.2051680        5.1238040       -0.1819990
 H       -0.8733510        4.8546200        2.4103030
 H       -1.9178540        3.4968080        1.9385400
 H       -2.6257670        5.0535450        2.4103350
 H       -1.9542800        7.1433490        1.0987920
 H       -1.3371710        7.0470310       -0.5584230
 H       -0.2678810        6.6978850        0.8205540
 H       -3.2015640        5.4299040       -1.2393530
 H       -3.8070260        5.8599780        0.3718910
 H       -3.7191950        4.1637490       -0.1161420
 H        0.6674940        3.4013310        2.6882720
 C        3.8376230        1.4333620       -0.2879310
 H        4.8388510        1.8537900       -0.4708950
 H        3.1994580        1.6689720       -1.1383260
 H        3.9504230        0.3390550       -0.2708100
 C        4.6714800        1.9342670        4.6683240
 H        5.6929230        1.6783920        4.3546840
 H        4.2964850        1.1007260        5.2855290
 H        4.7278190        2.8193240        5.3205300
