79
Mol_000290_2D_DFT last geometry from G09 out file
 Ru        0.1871920       -0.0265700        0.1191830
 C       -1.1312100       -0.8478460       -0.8185310
 Cl       -0.7040980       -0.2694320        2.3482950
 Cl        1.9225610       -0.1997180       -1.5864400
 H       -1.9418730       -0.4223010       -1.4126140
 H       -1.0796170       -1.9584790       -0.7761780
 C       -0.1256580        1.8925540       -0.0528330
 N        0.7201650        2.7870500        0.5946250
 N       -1.0344700        2.6293580       -0.7963370
 C        0.4988000        4.2112760        0.1692880
 C        1.7845230        2.4402320        1.5335640
 C       -0.7715050        4.1204240       -0.7392810
 H        0.2613710        4.7983970        1.0659180
 H       -0.5160310        4.4406100       -1.7580890
 C        1.7022340        2.7375660        2.9313520
 C        2.9592140        1.8430110        1.0165510
 C        2.8205480        2.4035060        3.7336090
 C        3.9872900        1.7807250        3.2344690
 H        2.7734110        2.6214370        4.8009440
 C        4.0389480        1.5037890        1.8500960
 H        4.9182060        1.0266440        1.4144260
 C       -2.1512450        2.0978000       -1.5565880
 C       -2.1429750        2.0064570       -2.9796630
 C       -3.2983610        1.6875300       -0.8322080
 C       -3.3337790        1.5558670       -3.6096550
 C       -4.4952840        1.1744120       -2.9030350
 H       -3.3474530        1.4861870       -4.6976020
 C       -4.4509500        1.2273530       -1.4871330
 H       -5.3128280        0.9083430       -0.8983010
 C       -0.9106940        2.3209500       -3.8438720
 C       -1.1531060        3.5152110       -4.8116050
 C       -0.4278270        1.0701030       -4.6340850
 H       -0.0889920        2.5928660       -3.1711420
 H       -1.4768230        4.4197290       -4.2767300
 H       -1.9240400        3.2787370       -5.5599390
 H       -0.2262480        3.7541080       -5.3557840
 H        0.4917900        1.3117390       -5.1887520
 H       -1.1789040        0.7303460       -5.3626270
 H       -0.1957980        0.2393410       -3.9566100
 H       -3.2612180        1.7004200        0.2553990
 C        1.7703430        4.8762500       -0.4647030
 C        1.5942130        6.4134360       -0.5776130
 C        2.2361160        4.2742740       -1.8128770
 H        2.5774370        4.7030140        0.2661870
 H        2.5366310        6.8753850       -0.9083030
 H        1.3246260        6.8683990        0.3885620
 H        0.8216240        6.6896220       -1.3116800
 H        3.2450830        4.6431820       -2.0521400
 H        1.5815250        4.5709530       -2.6457950
 H        2.2817860        3.1789520       -1.7878300
 C       -5.7510400        0.7243620       -3.6312900
 H       -6.5006380        1.5330960       -3.6636680
 H       -6.2238400       -0.1327720       -3.1287690
 H       -5.5380200        0.4324080       -4.6688880
 C       -1.9263190        5.0842930       -0.2683080
 C       -2.6329970        4.7171260        1.0589030
 C       -2.9610960        5.4107520       -1.3768530
 H       -1.3821720        6.0283940       -0.0836260
 H       -1.9247680        4.4893360        1.8643240
 H       -3.2997160        3.8558370        0.9435380
 H       -3.2476950        5.5665750        1.3944180
 H       -3.6143430        6.2323720       -1.0440780
 H       -3.6014210        4.5546740       -1.6187890
 H       -2.4679930        5.7402120       -2.3043250
 C        0.4874990        3.4057980        3.5949330
 C        0.7998600        4.8771050        4.0031190
 C       -0.0507370        2.6157090        4.8204620
 H       -0.3242360        3.4150600        2.8581580
 H        1.1782740        5.4737380        3.1599170
 H        1.5619720        4.9104490        4.7958340
 H       -0.1063490        5.3686740        4.3905440
 H        0.6593870        2.6206730        5.6604380
 H       -0.2634720        1.5752930        4.5507190
 H       -0.9853320        3.0762380        5.1782690
 H        3.0226720        1.6313210       -0.0458750
 C        5.1278250        1.3990020        4.1630230
 H        6.0718600        1.2721180        3.6148460
 H        4.9139640        0.4444690        4.6729800
 H        5.2875210        2.1556890        4.9456510
