77
Mol_000291_2D_DFT last geometry from G09 out file
 Ru        0.0386530       -0.0977180        0.3894360
 C       -1.3799660       -0.8989270       -0.4098770
 Cl       -0.7705540       -0.0246070        2.6685160
 Cl        1.6880360       -0.5606770       -1.3487760
 H       -2.1748870       -0.4642670       -1.0189650
 H       -1.4194240       -2.0004900       -0.2550100
 C       -0.1170120        1.8055730       -0.0039160
 N        0.8571740        2.6647780        0.4825020
 N       -0.9975080        2.5445890       -0.7751220
 C        0.7308300        4.0593360       -0.0552720
 C        1.8895380        2.3219330        1.4494040
 C       -0.5768910        3.9929030       -0.9115350
 H        0.5782770        4.7394540        0.7955080
 H       -0.3285920        4.1589820       -1.9687060
 C        1.7843930        2.6987220        2.8231950
 C        3.0564960        1.6498580        1.0165360
 C        2.8436660        2.3772880        3.6959590
 C        4.0207930        1.6845980        3.2747420
 H        2.7296770        2.6582410        4.7399960
 C        4.0979650        1.3240430        1.8957610
 H        4.9531050        0.7809400        1.5016380
 C       -2.1537320        2.0293560       -1.4784710
 C       -2.1327540        1.7500570       -2.8760740
 C       -3.3482910        1.8028130       -0.7569670
 C       -3.3195350        1.2983010       -3.4952250
 C       -4.5427390        1.0963900       -2.7841930
 H       -3.2738390        1.0824550       -4.5599200
 C       -4.5193800        1.3451070       -1.3760720
 H       -5.3991160        1.1746740       -0.7606530
 C       -0.8767200        1.8928480       -3.7206370
 H       -0.7006620        2.9407160       -4.0136870
 H       -0.9636890        1.3103500       -4.6476500
 H        0.0121460        1.5387900       -3.1859630
 H       -3.3455540        1.9548830        0.3212520
 C        2.0274590        4.5567760       -0.7845110
 C        1.9751600        6.0865120       -1.0347540
 C        2.3901420        3.7933060       -2.0808360
 H        2.8424330        4.3812380       -0.0626230
 H        1.2032520        6.3596620       -1.7706840
 H        2.9407730        6.4359490       -1.4306320
 H        1.7755870        6.6462870       -0.1070770
 H        3.4103060        4.0616810       -2.3955780
 H        1.7192380        4.0497150       -2.9142010
 H        2.3596750        2.7060880       -1.9416150
 N       -5.7047540        0.6604200       -3.4331660
 C       -6.9295190        0.4042890       -2.6625340
 C       -5.6888320        0.3701770       -4.8732450
 H       -6.7916300       -0.3990080       -1.9166140
 H       -7.7319690        0.0953320       -3.3423120
 H       -7.2726250        1.3080050       -2.1304880
 H       -6.6927420        0.0731410       -5.1978230
 H       -4.9961900       -0.4529410       -5.1256660
 H       -5.3957750        1.2553320       -5.4634480
 C       -1.6163040        5.1126970       -0.5347600
 C       -2.3131920        4.9567350        0.8386400
 C       -2.6460550        5.4003590       -1.6589510
 H       -0.9850000        6.0173050       -0.4679770
 H       -1.6028400        4.7517750        1.6489290
 H       -3.0543930        4.1497570        0.8295690
 H       -2.8427890        5.8882950        1.0919190
 H       -2.1470270        5.5669890       -2.6270430
 H       -3.2153630        6.3125950       -1.4208750
 H       -3.3639780        4.5819910       -1.7859640
 C        0.5716850        3.4184930        3.3890200
 H        0.5827030        4.4931950        3.1429790
 H        0.5489300        3.3367200        4.4835960
 H       -0.3590700        2.9857120        3.0060430
 H        3.1383420        1.3509370       -0.0244000
 N        5.0470420        1.3719090        4.1752990
 C        4.9022240        1.6786560        5.6048070
 C        6.2213120        0.6141390        3.7209330
 H        5.7999430        1.3511240        6.1419070
 H        4.0337030        1.1643780        6.0539720
 H        4.7858860        2.7620060        5.7809210
 H        5.9515060       -0.3928620        3.3545600
 H        6.9231440        0.4920340        4.5541470
 H        6.7548010        1.1394090        2.9106830
