61
M00000081_2D_DFT last geometry from G09 out file
Ru        0.3487880        0.0883040       -0.1586180
C       -0.4720000       -0.1560740       -1.7603990
Cl       -1.2281190       -0.7749680        1.4416500
Cl        2.6360620        0.0679530       -0.9301120
H       -0.8439850        0.6134310       -2.4443820
H       -0.5506020       -1.2050420       -2.1131320
C        0.1124160        2.0140950        0.0286000
N        0.9342300        2.7925640        0.8324120
N       -0.7459990        2.8745320       -0.6538470
C        1.7662420        2.2746980        1.8971860
C        0.8129510        4.2952350        0.5464760
C        3.1656290        2.2328660        1.6984400
C        1.2279650        1.8327770        3.1528780
C        4.0384710        1.7716120        2.7008010
C        3.5153680        1.3218140        3.9290140
H        5.1117650        1.7401790        2.5087870
C        2.1263790        1.3467780        4.1412300
H        1.7158810        0.9937740        5.0832970
C       -0.5199610        4.3014790       -0.2580090
H       -1.3618070        4.6271670        0.3708240
H       -0.4670720        4.9278190       -1.1510940
C       -2.0610170        2.5368370       -1.1490690
C       -2.4866490        2.7867150       -2.4934910
C       -2.9783600        1.9744410       -0.2283970
C       -3.8174230        2.4511510       -2.8615540
C       -4.7177480        1.8949420       -1.9364540
H       -4.1329440        2.6288300       -3.8874180
C       -4.2919920        1.6510280       -0.6144900
H       -4.9738650        1.2135410        0.1159600
C       -1.5945870        3.3768710       -3.5416930
O       -1.9063600        2.8668790       -4.8086840
O       -0.6840740        4.2186450       -3.3725240
C       -1.1146290        3.3938920       -5.9440280
H       -1.5106060        2.8709990       -6.8210640
H       -1.2500470        4.4803310       -6.0372360
H       -0.0485650        3.1708950       -5.8018990
H       -2.6457440        1.7862400        0.7878250
C        0.6834110        5.1094950        1.8744210
C        0.4132630        6.6245550        1.7088140
H       -0.1315880        4.6687670        2.4592660
H        1.6082810        4.9844700        2.4584860
H       -0.4815000        6.8244480        1.1000830
H        1.2583740        7.1607980        1.2555270
H        0.2372890        7.0708530        2.6999800
C        2.0338210        4.8225530       -0.2823310
C        2.3956550        4.1088870       -1.6024690
H        1.8193440        5.8779460       -0.5122610
H        2.9128930        4.8340830        0.3817520
H        2.6249310        3.0467540       -1.4584900
H        3.2883590        4.5871840       -2.0367850
H        1.5896350        4.1831580       -2.3410840
H       -5.7351290        1.6524450       -2.2457590
H        3.5626510        2.5168640        0.7299240
C       -0.2366950        1.8953820        3.4964220
O       -0.5196800        1.1313610        4.6287050
O       -1.1232540        2.5538370        2.9056510
C       -1.9395350        1.0484220        5.0324920
H       -1.9333380        0.4195790        5.9292760
H       -2.3389590        2.0479430        5.2537050
H       -2.5253880        0.5819240        4.2303380
H        4.1774670        0.9466620        4.7103520
