59
M00000082_2D_DFT last geometry from G09 out file
Ru       -0.2666080        0.0576270        0.7383820
C       -0.4302450       -0.7225030       -0.8985990
Cl       -2.4519440       -0.1201230        1.7121170
Cl        1.9928360       -0.6054600        1.2553440
H       -0.2970750       -0.2525590       -1.8747030
H       -0.6096200       -1.8153830       -0.9001310
C       -0.1985170        1.9215000        0.1561920
N        0.7530110        2.8772020        0.5679720
N       -1.0831020        2.6126000       -0.6945240
C        0.6460270        4.1203330       -0.2817100
C        1.9167650        2.7134660        1.4121920
C        1.0633070        5.4970310        0.2557820
C       -0.8420650        4.0992980       -0.6134370
H        1.2157140        3.9318500       -1.2072790
C        0.7534690        6.5304110       -0.8680860
H        2.1347510        5.5260630        0.5018570
H        0.5066680        5.7458120        1.1684230
C       -0.7097740        6.4553310       -1.3857360
H        1.4456440        6.3663410       -1.7119080
H        0.9559620        7.5449300       -0.4898140
C       -1.1401780        5.0187820       -1.8070950
H       -1.3925440        6.8207070       -0.5995250
H       -0.8296670        7.1336610       -2.2452450
H       -2.2085190        5.0122100       -2.0679750
H       -0.5792660        4.7025170       -2.6971660
H       -1.4074190        4.4760070        0.2557720
C        1.8174360        2.8824060        2.8275790
C        3.1946400        2.5067360        0.8164490
C        2.9746520        2.8321570        3.6343280
C        4.2355890        2.6412010        3.0444560
H        2.8885920        2.9434910        4.7123470
C        4.3361230        2.4815970        1.6531890
H        5.3136190        2.3072370        1.2011700
C       -2.2886430        2.1298250       -1.3305950
C       -2.2722090        1.6503730       -2.6776370
C       -3.5374990        2.2430100       -0.6461130
C       -3.4639630        1.1848720       -3.2840280
C       -4.6763410        1.2205450       -2.5784000
H       -3.4383260        0.8020450       -4.3026630
C       -4.7077410        1.7655210       -1.2842730
H       -5.6545620        1.8188830       -0.7454970
C        0.4934380        3.1064490        3.5210800
F       -0.1973250        4.2776020        3.0797830
F        0.6235540        3.2682410        4.9178340
F       -0.4244450        2.0412920        3.3433600
C        3.3782160        2.2801710       -0.6739990
H        3.5404610        3.2284120       -1.2125430
H        2.5173980        1.7751990       -1.1225300
H        4.2599530        1.6513240       -0.8523110
H        5.1277630        2.6037930        3.6699550
C       -1.0850850        1.6925190       -3.6166660
F       -0.9770320        0.5052670       -4.3950310
F        0.1907870        1.8808060       -3.0492520
F       -1.2222320        2.7471490       -4.5749960
C       -3.6776560        2.9003250        0.7156880
H       -2.7982830        2.7639800        1.3479170
H       -4.5323560        2.4781590        1.2574630
H       -3.8627670        3.9818880        0.5992790
H       -5.5880670        0.8441770       -3.0426430
