89
Mol_000094_2D_DFT last geometry from G09 out file
 Ru        0.2939560       -0.5279290       -0.5034730
 C       -1.1692920       -1.2057760       -1.3413140
 Cl        0.0018290       -1.6568510        1.6216040
 Cl        1.7822820       -0.3666630       -2.3886520
 H       -2.1207050       -0.7103620       -1.5525610
 H       -1.0824660       -2.2663380       -1.6589540
 C       -0.1148630        1.3902180       -0.2919740
 N        0.8347200        2.2722070        0.2523410
 N       -1.2289370        2.1379830       -0.6752640
 C        1.9742100        1.8350750        1.0742790
 C        0.4832150        3.7317530       -0.0877020
 C        3.3538220        1.9051420        0.6404200
 C        1.7086440        1.3073810        2.3883460
 C        4.3538950        1.2663180        1.4118050
 C        4.0616770        0.6157900        2.6203960
 H        5.3819750        1.2927320        1.0506270
 C        2.7529070        0.6782640        3.1116920
 H        2.5164670        0.2238320        4.0741330
 C       -1.0947400        3.6233060       -0.2496000
 C       -2.4026480        1.7244210       -1.4479210
 C       -3.6750690        1.4731920       -0.7895540
 C       -2.3412760        1.7169110       -2.8835590
 C       -4.8352270        1.3091070       -1.5983240
 C       -4.7750530        1.3726120       -2.9965620
 H       -5.7904800        1.1057470       -1.1204650
 C       -3.5375370        1.5541310       -3.6281410
 H       -3.4941850        1.5861940       -4.7148370
 H       -5.6849750        1.2538630       -3.5877920
 C        1.1849020        4.1456930       -1.4093320
 H        0.8240790        3.5704580       -2.2647980
 H        2.2523880        3.9377940       -1.3073070
 H        1.0251040        5.2138370       -1.6130770
 C        0.9249080        4.7018780        1.0292660
 H        0.5499390        4.4199740        2.0156590
 H        0.5642530        5.7142400        0.7997460
 H        2.0171610        4.7494920        1.0805270
 C       -1.6711180        4.5900960       -1.3136960
 H       -1.2537480        4.4428100       -2.3105240
 H       -1.4611870        5.6243560       -1.0061810
 H       -2.7607870        4.4804100       -1.3784330
 C       -1.8747460        3.9013870        1.0650670
 H       -1.5403150        3.2805250        1.8971020
 H       -2.9374900        3.7045380        0.9120270
 H       -1.7566270        4.9557420        1.3507770
 N        3.8093710        2.6855510       -0.5108230
 C        4.6506140        3.8480570       -0.1222590
 C        4.4373510        1.9163290       -1.6138160
 H        5.6766450        3.5677360        0.1958020
 H        4.1862330        4.4027470        0.7022500
 H        4.7435630        4.5258040       -0.9857480
 H        3.8110150        1.0625070       -1.8757700
 H        5.4573440        1.5514650       -1.3672300
 H        4.5203080        2.5682120       -2.4979060
 C        0.3749220        1.4121550        3.1246000
 C        0.4341350        2.3483610        4.3690680
 H       -0.4169810        1.7474160        2.4557540
 H        0.0831890        0.4094500        3.4632710
 C       -0.8917250        2.3719670        5.1691240
 H        1.2437890        2.0173240        5.0390650
 H        0.6945970        3.3748860        4.0626440
 C       -0.8319890        3.2750460        6.4213940
 H       -1.1478180        1.3421760        5.4742500
 H       -1.7137630        2.7135980        4.5159340
 H       -1.7898010        3.2649830        6.9654510
 H       -0.6113170        4.3204010        6.1513810
 H       -0.0483520        2.9382130        7.1187630
 H        4.8448710        0.1019140        3.1798790
 N       -3.8410620        1.4318010        0.6259780
 C       -5.1568760        1.7721560        1.1942000
 C       -3.1329380        0.4119520        1.4240080
 H       -5.8880520        0.9377610        1.1645640
 H       -5.5945490        2.6348520        0.6752420
 H       -5.0186770        2.0445460        2.2520140
 H       -2.1418800        0.2096800        1.0267750
 H       -3.6895620       -0.5471650        1.4422190
 H       -3.0243820        0.7569870        2.4625930
 C       -1.0554910        1.9380980       -3.6869530
 C       -0.8167000        0.9536250       -4.8670910
 H       -1.0832790        2.9599270       -4.1071310
 H       -0.1831810        1.8823840       -3.0342750
 C        0.4185380        1.3437280       -5.7150890
 H       -0.6747880       -0.0607800       -4.4656840
 H       -1.6936730        0.9157840       -5.5320050
 C        0.6972770        0.3537970       -6.8676170
 H        1.3045690        1.3965700       -5.0631970
 H        0.2687150        2.3563790       -6.1328690
 H       -0.1607700        0.2842760       -7.5563510
 H        0.8998260       -0.6562160       -6.4781340
 H        1.5743740        0.6666710       -7.4562930
