59
Mol_000096_2D_DFT last geometry from G09 out file
 Ru        0.2673600       -0.4053510       -0.2823020
 C       -1.3885280       -1.1009640       -0.5765010
 Cl        0.6098280       -1.1260580        1.9682790
 Cl        1.2051990       -0.5794450       -2.4619040
 H       -2.3522410       -0.5902840       -0.5947660
 H       -1.4042320       -2.1975780       -0.7363730
 C       -0.0558110        1.4715240       -0.1790210
 N        0.9693320        2.3794560        0.2239260
 N       -1.1668140        2.2756130       -0.5278280
 C        2.1471310        2.0433230        1.0179570
 C        0.6000410        3.7542830        0.0276330
 C        3.4231310        1.8809240        0.3982160
 C        2.0473430        1.9696640        2.4469400
 C        4.5275040        1.5638090        1.2365800
 C        4.4063550        1.4412430        2.6272370
 H        5.5033070        1.4170730        0.7785190
 C        3.1640550        1.6626310        3.2425390
 H        3.0451600        1.6040610        4.3209420
 C       -0.9251410        3.6857220       -0.3197890
 C       -2.4038700        1.8722880       -1.1757330
 C       -3.5851160        1.6881920       -0.3914290
 C       -2.4647380        1.7011240       -2.5956330
 C       -4.7853640        1.3526400       -1.0743550
 C       -4.8346770        1.1874750       -2.4664870
 H       -5.6964740        1.2182760       -0.4940040
 C       -3.6698230        1.3543520       -3.2340180
 H       -3.6761060        1.2248590       -4.3129200
 H       -5.7737310        0.9314620       -2.9575650
 F        1.3244170        4.3958130       -1.0205530
 F        0.8625570        4.5569090        1.1654170
 F       -1.2834740        4.4830980       -1.4248710
 F       -1.6990530        4.2357030        0.7496600
 C        3.6902090        2.0899510       -1.1015170
 C        4.5022860        0.9267610       -1.7374940
 C        4.4329950        3.4418360       -1.3331830
 H        2.7307680        2.1452750       -1.6277690
 H        4.0501180       -0.0508300       -1.5317390
 H        5.5460690        0.9111020       -1.3904110
 H        4.5216380        1.0578390       -2.8288570
 H        4.5538090        3.6099050       -2.4135780
 H        5.4354960        3.4310360       -0.8791720
 H        3.8785970        4.2937780       -0.9213260
 N        0.7840690        2.2240580        3.2130210
 O        0.9028080        2.5231120        4.4573980
 O       -0.3490700        2.1370050        2.6206650
 H        5.2751150        1.1887720        3.2353670
 C       -3.6301960        1.8244090        1.1414570
 C       -4.0414000        0.4957530        1.8407860
 C       -4.5784310        2.9805370        1.5750720
 H       -2.6302450        2.0730910        1.5044900
 H       -3.3356600       -0.3179160        1.6265130
 H       -5.0508470        0.1651060        1.5538600
 H       -4.0376550        0.6487540        2.9297410
 H       -4.5039040        3.1218460        2.6632130
 H       -5.6306390        2.7624780        1.3379550
 H       -4.3064720        3.9293250        1.0950430
 N       -1.2871250        1.8810750       -3.5222530
 O       -0.2501160        2.5081540       -3.1139360
 O       -1.4030410        1.3970520       -4.7070370
