109
M00000125_2D_DFT last geometry from G09 out file
Ru        0.3977320        1.3117960       -0.3894310
C       -1.0302770        0.3806400       -1.0078690
Cl        0.2564070        0.7233770        1.9493040
Cl        1.5227240        1.3765970       -2.5584930
H       -1.9778960        0.7364070       -1.4144360
H       -0.8670950       -0.7199310       -1.0189570
C       -0.0785040        3.2143600       -0.3443040
N        0.8348940        4.1413940        0.1748770
N       -1.1503220        3.8959900       -0.9001660
C        0.4733240        5.5782820       -0.2185710
C        1.7861060        3.8463450        1.2820620
C       -0.9374310        5.4179760       -0.9308090
H        0.3599150        6.1500010        0.7123290
H       -0.8105430        5.6847830       -1.9867960
C        1.3469940        4.0667490        2.6331630
C        3.1303810        3.3852670        1.0449340
C        2.2625630        3.8818270        3.6959290
C        3.5907420        3.5034130        3.4690280
H        1.9119670        4.0108960        4.7200350
C        4.0026480        3.2538180        2.1550990
H        5.0316890        2.9477780        1.9757290
C       -2.2805510        3.2647850       -1.5890810
C       -2.3294710        3.2842720       -3.0240460
C       -3.3594150        2.6914940       -0.8297370
C       -3.5051440        2.8236210       -3.6646780
C       -4.5985400        2.3354910       -2.9318340
H       -3.5652310        2.8484320       -4.7506570
C       -4.5100380        2.2554910       -1.5335960
H       -5.3510050        1.8530760       -0.9699920
C       -1.1758300        3.8008710       -3.8875110
C       -0.9374570        3.0508680       -5.2262780
H       -1.3539340        4.8665690       -4.1246460
H       -0.2476620        3.7504070       -3.3130210
C        0.3036940        3.5788820       -5.9863900
H       -0.8035070        1.9779480       -5.0182840
H       -1.8126450        3.1460240       -5.8894300
C        0.5435940        2.8530000       -7.3287950
H        1.1950030        3.4625210       -5.3489430
H        0.1868320        4.6617710       -6.1755960
H        1.4331150        3.2516600       -7.8418880
H       -0.3157080        2.9694900       -8.0093420
H        0.7042050        1.7747590       -7.1715140
C       -3.3791550        2.5315630        0.6951730
C       -3.7543680        1.1202470        1.2339860
H       -2.4096360        2.7998850        1.1217200
H       -4.1229570        3.2379720        1.1033400
C       -3.8712740        1.0983440        2.7776660
H       -4.7105220        0.7816990        0.8041760
H       -2.9891190        0.3936460        0.9276230
C       -4.2189090       -0.2984680        3.3378030
H       -4.6427430        1.8225950        3.0975700
H       -2.9177520        1.4335300        3.2169030
H       -5.1775390       -0.6669970        2.9372790
H       -4.3017270       -0.2756460        4.4359710
H       -3.4393550       -1.0315730        3.0778160
C        1.6138630        6.3272710       -1.0755960
C        2.8428560        6.6136200       -0.1570670
C        2.0323110        5.5289580       -2.3424850
C        1.1698110        7.7323320       -1.5889050
H        3.5722150        7.2306660       -0.7030100
H        3.3562230        5.7135940        0.1764620
H        2.5414680        7.1778260        0.7395450
H        2.9846430        5.9213720       -2.7290140
H        1.2922760        5.6410280       -3.1458280
H        2.1601840        4.4637360       -2.1558680
H        0.9519310        8.4345350       -0.7750840
H        0.3061120        7.6890430       -2.2614460
H        2.0032120        8.1560150       -2.1691590
H       -5.5033080        2.0067970       -3.4459830
C       -2.1695280        6.3318910       -0.4303500
C       -2.6744250        6.0073040        0.9972450
C       -1.7882980        7.8452630       -0.4041930
C       -3.3614620        6.2307480       -1.4368920
H       -1.9691850        6.3580270        1.7565420
H       -2.8518830        4.9457110        1.1512980
H       -3.6243040        6.5341880        1.1738130
H       -2.6496070        8.4044150       -0.0094940
H       -1.5726880        8.2464210       -1.4010040
H       -0.9387570        8.0588210        0.2538930
H       -4.0892150        7.0247530       -1.2109500
H       -3.8916790        5.2777040       -1.3834280
H       -3.0294420        6.3795890       -2.4749790
C       -0.0845140        4.3884020        3.0615700
C       -0.2437680        5.6710770        3.9321720
H       -0.7511150        4.4409770        2.2010060
H       -0.4314220        3.5263320        3.6550570
C       -1.5618870        5.7004440        4.7456560
H        0.5959430        5.7508270        4.6385700
H       -0.1797490        6.5691140        3.2938450
C       -1.7460000        6.9978820        5.5639930
H       -1.5745440        4.8339070        5.4299140
H       -2.4252560        5.5693260        4.0732880
H       -1.7835820        7.8834790        4.9091300
H       -0.9163520        7.1439200        6.2743080
H       -2.6817240        6.9719630        6.1444690
C        3.7574390        3.0666450       -0.3171790
C        4.5261140        1.7154720       -0.4058380
H        3.0050800        3.0664720       -1.1044290
H        4.4726510        3.8714110       -0.5635140
C        5.3185790        1.5744350       -1.7280320
H        5.2312060        1.6069940        0.4322080
H        3.8102140        0.8840010       -0.3196090
C        6.0441590        0.2166300       -1.8550990
H        6.0606380        2.3913640       -1.7948120
H        4.6327650        1.6986850       -2.5800190
H        6.6082450        0.1544900       -2.7994110
H        5.3244230       -0.6171590       -1.8408010
H        6.7562490        0.0602740       -1.0281560
H        4.2858140        3.3818170        4.3012280
