109
M00000130_2D_DFT last geometry from G09 out file
Ru        0.1078860       -0.0453360       -1.2000970
C       -1.4622080       -0.6449360       -1.8804900
Cl        0.0101780       -1.0561480        0.9916730
Cl        1.1741650        0.3526360       -3.3451870
H       -2.3901870       -0.1115270       -2.0892630
H       -1.4348470       -1.7205080       -2.1636730
C       -0.0973920        1.8376640       -0.7324090
N        0.9986280        2.5187350       -0.1829320
N       -1.1119990        2.7508430       -0.9585450
C        0.8069050        4.0351430       -0.2263940
C        1.9122730        1.9125570        0.7920710
C       -0.7042020        4.1963900       -0.6544740
H        0.9414390        4.4056430        0.7975510
H       -0.7350970        4.7228440       -1.6155350
C        1.5145710        1.9479050        2.1548820
C        3.1899720        1.3249160        0.5249780
C        2.2820220        1.5114690        3.2322260
C        3.5641580        0.9780390        2.9753820
H        1.8690030        1.5697180        4.2384590
C        3.9728060        0.8937120        1.6294970
H        4.9546480        0.4709260        1.4183040
C       -2.3092200        2.4649890       -1.7237500
C       -2.3627320        2.8565290       -3.0822940
C       -3.4781090        1.8424980       -1.1767530
C       -3.4774190        2.6933750       -3.9090510
C       -4.6426520        2.1040040       -3.3707960
H       -3.4200960        3.0152130       -4.9481880
C       -4.6086640        1.6896540       -2.0188710
H       -5.5003630        1.2223710       -1.6045600
F       -1.2284370        3.4610340       -3.6570970
C       -3.5491530        1.3666000        0.2766640
C       -4.3065260        0.0374470        0.5437360
H       -2.5362060        1.2642380        0.6774460
H       -4.0429130        2.1550790        0.8709330
C       -4.2343190       -0.3789400        2.0336630
H       -5.3673140        0.1274510        0.2566590
H       -3.8765590       -0.7677090       -0.0721570
C       -4.9821730       -1.6971400        2.3310780
H       -4.6558590        0.4280340        2.6599010
H       -3.1776450       -0.4873460        2.3266250
H       -4.9100230       -1.9594840        3.3982710
H       -4.5555980       -2.5331420        1.7541930
H       -6.0521290       -1.6222270        2.0761290
C        1.8838650        4.7900530       -1.1447470
C        3.2710640        4.7583040       -0.4331740
C        1.9893850        4.1779110       -2.5684900
C        1.5436890        6.3021220       -1.3255190
H        3.6816590        3.7524270       -0.3483420
H        3.2102140        5.1868970        0.5799790
H        3.9925380        5.3625100       -1.0033750
H        1.0819540        4.3575150       -3.1580020
H        2.1572900        3.1000350       -2.5556660
H        2.8279840        4.6461530       -3.1059560
H        2.3212440        6.7537170       -1.9593820
H        1.5385210        6.8504300       -0.3751890
H        0.5855870        6.4679100       -1.8328990
C       -5.8993800        1.9448770       -4.2157290
C       -6.8267440        3.1956880       -4.1817850
H       -5.6206910        1.7422280       -5.2625680
H       -6.4730220        1.0714490       -3.8661810
C       -8.1014310        3.0266520       -5.0425380
H       -7.1135100        3.4054430       -3.1373370
H       -6.2613340        4.0757760       -4.5319990
C       -9.0253880        4.2643280       -5.0125110
H       -8.6638980        2.1432420       -4.6920670
H       -7.8108500        2.8139270       -6.0865000
H       -9.9198760        4.1065750       -5.6354250
H       -8.5069970        5.1592640       -5.3922190
H       -9.3657380        4.4843200       -3.9879940
C       -1.6838090        5.0207470        0.3153200
C       -1.9421880        4.3534550        1.6933050
C       -1.0967120        6.4363220        0.6123690
C       -3.0465480        5.2804440       -0.4047650
H       -1.0757940        4.4478120        2.3570060
H       -2.1769450        3.2921000        1.6116790
H       -2.7892290        4.8557540        2.1854350
H       -1.0036840        7.0523240       -0.2905170
H       -0.1207670        6.3937130        1.1103660
H       -1.7836700        6.9568910        1.2960470
H       -2.9000810        5.6862530       -1.4175530
H       -3.6210090        6.0252790        0.1661910
H       -3.6669150        4.3846770       -0.4854470
F        0.2369250        2.4525980        2.4610050
C        3.8061210        1.1430640       -0.8629910
C        4.2313820       -0.3152150       -1.2048540
H        3.1236300        1.4904290       -1.6403640
H        4.7098340        1.7749500       -0.9240590
C        5.0046550       -0.4047800       -2.5420480
H        4.8619770       -0.7305290       -0.4028430
H        3.3361770       -0.9523850       -1.2594260
C        5.3985520       -1.8509780       -2.9155340
H        5.9168750        0.2164190       -2.4778590
H        4.3871660        0.0213120       -3.3480220
H        4.5051180       -2.4842870       -3.0342720
H        6.0353360       -2.3091960       -2.1410230
H        5.9549320       -1.8774520       -3.8659370
C        4.4679290        0.5245260        4.1131640
C        5.3105830        1.6784320        4.7320520
H        3.8589410        0.0669020        4.9098860
H        5.1530400       -0.2584490        3.7509610
C        6.2263140        1.2068360        5.8867620
H        5.9250580        2.1418010        3.9414980
H        4.6321800        2.4664580        5.1007040
C        7.0650680        2.3473270        6.5052170
H        6.9028240        0.4166220        5.5160250
H        5.6086410        0.7401310        6.6743570
H        7.7028130        1.9733260        7.3216970
H        6.4196800        3.1380530        6.9202290
H        7.7225560        2.8126450        5.7534500
