73
M00000124_2D_DFT last geometry from G09 out file
Ru        0.4499410        0.0480900       -0.0697670
C       -0.5797680       -0.7249300       -1.3518600
Cl       -0.8559050       -0.1306040        1.9454120
Cl        2.4732560       -0.1340180       -1.4503380
H       -1.0458790       -0.2746690       -2.2328490
H       -0.6417560       -1.8324270       -1.2792030
C        0.1216860        1.9497220       -0.2560000
N        0.9556840        2.8902520        0.3610970
N       -0.8580730        2.6629130       -0.9287730
C        0.7243570        4.2758320       -0.1764790
C        1.7633800        2.6409040        1.5339350
C       -0.7235520        4.1675220       -0.7584780
H        0.7466410        4.9791420        0.6587210
H       -0.7535970        4.6164720       -1.7582500
C        1.6120890        3.4628930        2.6818740
C        2.7034520        1.5842870        1.5788300
C        2.3657820        3.2210390        3.8388420
C        3.2888840        2.1463290        3.8931560
H        2.2355480        3.8484400        4.7200250
C        3.4444220        1.3318720        2.7470750
H        4.1591850        0.5116970        2.7602160
C       -1.9223300        2.1028380       -1.7261830
C       -1.9860710        2.3792960       -3.1126400
C       -2.9339890        1.3123300       -1.1264260
C       -3.0512050        1.8856060       -3.8856620
C       -4.0702310        1.1015600       -3.2891130
H       -3.1012820        2.0915280       -4.9542410
C       -3.9952500        0.8148920       -1.9022320
H       -4.7688600        0.2087660       -1.4360170
H       -1.1989070        2.9605660       -3.5899650
H       -2.8782460        1.0787900       -0.0660850
C        1.8531800        4.7584860       -1.1939390
C        1.9530020        3.8658480       -2.4616980
C        1.5464090        6.2266630       -1.6207420
C        3.2377100        4.7601220       -0.4789470
H        1.0424090        3.9087280       -3.0759210
H        2.1539530        2.8175760       -2.2133250
H        2.7812390        4.2197990       -3.0935980
H        2.3462720        6.5864320       -2.2841020
H        1.5053810        6.9045780       -0.7551940
H        0.6017810        6.3216430       -2.1740730
H        3.5812880        3.7464650       -0.2455650
H        3.2188810        5.3407990        0.4557490
H        3.9900870        5.2182650       -1.1377970
C       -5.1819450        0.6068580       -4.1591580
O       -6.1027960       -0.1632790       -3.4452850
O       -5.2955020        0.8424370       -5.3845350
C       -7.2457550       -0.7061430       -4.2126910
H       -7.8322470       -1.2662340       -3.4766380
H       -7.8369770        0.1106610       -4.6488570
H       -6.8889850       -1.3652470       -5.0158910
C       -1.8915610        4.8664390        0.0814280
C       -2.1712240        4.1552850        1.4337290
C       -1.5062090        6.3545520        0.3590330
C       -3.2090410        4.9143790       -0.7551240
H       -2.4524670        3.1049660        1.2992700
H       -3.0018770        4.6586650        1.9503690
H       -1.3063030        4.1801130        2.1074700
H       -2.3506100        6.8547630        0.8547400
H       -1.2976140        6.9047710       -0.5693340
H       -0.6384830        6.4628400        1.0231310
H       -3.6586960        3.9282850       -0.8989360
H       -3.0436780        5.3630950       -1.7468750
H       -3.9503460        5.5370890       -0.2326180
H        0.8913740        4.2764800        2.6926970
H        2.9031000        0.9895040        0.6899730
C        4.0546730        1.9315560        5.1563420
O        4.9016820        0.8223190        5.0751990
O        3.9677120        2.6458110        6.1832380
C        5.6995910        0.5128540        6.2809550
H        6.2806480       -0.3747030        6.0082480
H        6.3601730        1.3543740        6.5316110
H        5.0394660        0.3036740        7.1339400
