103
Mol_000249_2D_DFT last geometry from G09 out file
 Ru        0.4460730       -0.4980780       -0.4694840
 C       -0.6399180       -1.3407030       -1.6545450
 Cl       -0.4828670       -1.4171800        1.5681600
 Cl        2.2513200        0.0056070       -2.0355740
 H       -1.5078060       -0.9709920       -2.2032310
 H       -0.3563090       -2.4009900       -1.8391350
 C       -0.2027770        1.3378010       -0.3015980
 N        0.4452550        2.2054640        0.5733480
 N       -1.1713330        2.0557830       -0.9817570
 C        1.4995400        1.7596360        1.4861520
 C        0.1908070        3.6761900        0.1617600
 C        2.8088270        1.5627570        0.9738900
 C        1.2512040        1.5096910        2.8714580
 C        3.8651920        1.1309450        1.7904220
 C        3.6503530        0.8727660        3.1649900
 H        4.8459060        0.9782350        1.3394900
 C        2.3441040        1.0695190        3.6621440
 H        2.1541040        0.8436340        4.7126280
 C       -1.3136610        3.4972680       -0.4080950
 C       -2.1850300        1.4410840       -1.8252160
 C       -3.2215760        0.7110610       -1.1878670
 C       -2.1730520        1.5350230       -3.2473330
 C       -4.2753930        0.1387140       -1.9152320
 C       -4.3376780        0.2872130       -3.3244520
 H       -5.0443500       -0.4184370       -1.3795330
 C       -3.2757990        0.9754370       -3.9494890
 H       -3.2903850        1.0728390       -5.0365480
 C       -5.4910600       -0.2912540       -4.1548810
 C       -6.8584000        0.3444770       -3.7771590
 C       -5.5488800       -1.8427360       -4.0721940
 H       -5.2958540       -0.0324660       -5.2094910
 H       -7.6534160       -0.0358520       -4.4373190
 H       -6.8277440        1.4400350       -3.8768820
 H       -7.1428630        0.1081170       -2.7409020
 H       -4.5938410       -2.2923240       -4.3831310
 H       -6.3397250       -2.2326870       -4.7317150
 H       -5.7658550       -2.1871330       -3.0500460
 C        1.2844140        3.9870680       -0.9366680
 C        1.4558550        5.4010750       -1.5496500
 H        2.2392140        3.7414400       -0.4577040
 H        1.1706930        3.2606580       -1.7507210
 H        1.4592470        6.2015500       -0.7991440
 H        0.6966110        5.6487000       -2.2992260
 H        2.4308950        5.4359950       -2.0617680
 C        0.2913840        4.6649390        1.3684130
 C        1.6886220        5.0758830        1.9007470
 H       -0.2328510        5.5850520        1.0754590
 H       -0.2711070        4.2513170        2.2108730
 H        2.3038620        5.5825970        1.1479540
 H        2.2607400        4.2268860        2.2867270
 H        1.5476080        5.7840690        2.7333430
 C       -1.7416260        4.4738070       -1.5430650
 C       -1.9655690        5.9611890       -1.1732160
 H       -1.0194190        4.4205210       -2.3610630
 H       -2.6850290        4.0894960       -1.9538120
 H       -1.0402990        6.4744880       -0.8909710
 H       -2.6850420        6.0947010       -0.3563700
 H       -2.3716540        6.4869050       -2.0520620
 C       -2.3841760        3.5052850        0.7557160
 C       -3.8948140        3.5803960        0.4126510
 H       -2.2126050        2.6169680        1.3754320
 H       -2.1769710        4.3709090        1.3967290
 H       -4.2331420        2.7829160       -0.2529640
 H       -4.1774010        4.5379540       -0.0428940
 H       -4.4668580        3.4907690        1.3507120
 H        2.9911080        1.7103550       -0.0850460
 C       -0.1175890        1.6117650        3.5387570
 C       -0.1966450        2.5488600        4.7770890
 H       -0.8661240        1.9205810        2.8048170
 H       -0.4110980        0.5974060        3.8516040
 C       -1.6081570        2.5740910        5.4130300
 H        0.5274970        2.2244170        5.5416470
 H        0.0955160        3.5743310        4.4962400
 C       -1.7038430        3.4841900        6.6578140
 H       -1.8985640        1.5455410        5.6900820
 H       -2.3448280        2.9079950        4.6608170
 H       -1.0110760        3.1530440        7.4480760
 H       -2.7210720        3.4747490        7.0803760
 H       -1.4534430        4.5287330        6.4111630
 C        4.7671430        0.3644170        4.0855510
 C        5.9517180        1.3655820        4.1840690
 C        5.2565280       -1.0511800        3.6672970
 H        4.3390800        0.2706490        5.0981520
 H        6.4553560        1.4950010        3.2144460
 H        6.7016610        1.0021340        4.9039440
 H        5.6081850        2.3557010        4.5204410
 H        6.0008190       -1.4283810        4.3861000
 H        5.7257220       -1.0389900        2.6722240
 H        4.4194140       -1.7643340        3.6343380
 H       -3.1776970        0.5769240       -0.1084910
 C       -1.0346390        2.1530910       -4.0563530
 C       -0.3339170        1.1653760       -5.0342700
 H       -1.4245740        3.0032810       -4.6440620
 H       -0.2714640        2.5504600       -3.3810550
 C        0.8113040        1.8349050       -5.8308850
 H        0.0762890        0.3217830       -4.4603920
 H       -1.0680760        0.7481710       -5.7430380
 C        1.5230230        0.8635380       -6.7984870
 H        1.5527290        2.2430430       -5.1230750
 H        0.4121330        2.6934240       -6.4014450
 H        0.8211550        0.4494900       -7.5407280
 H        1.9706510        0.0204260       -6.2496600
 H        2.3307770        1.3717290       -7.3487790
