83
Mol_000251_2D_DFT last geometry from G09 out file
 Ru       -0.1507870       -0.2641940        0.2797870
 C       -0.9748470       -0.9748380       -1.1742370
 Cl       -1.8329090       -0.2752380        2.0007880
 Cl        2.0842350       -0.8900520       -0.4183780
 H       -1.1648770       -0.4883380       -2.1349520
 H       -1.1987440       -2.0602780       -1.1161690
 C       -0.3204690        1.6566830       -0.0368080
 N        0.4670670        2.5816710        0.6424530
 N       -1.2223440        2.3769070       -0.8133710
 C        1.5373550        2.1819810        1.5350280
 C        0.3043560        4.0110440        0.0519330
 C        2.8146260        1.9031050        0.9886490
 C        1.4156270        2.0033000        2.9483270
 C        3.9147470        1.5317200        1.7776390
 C        3.7921510        1.3745840        3.1777340
 H        4.8622460        1.3289300        1.2797960
 C        2.5179290        1.6005920        3.7357260
 H        2.3555610        1.4606930        4.8024900
 C       -1.2305660        3.8886300       -0.4194030
 C       -2.2923130        1.7848760       -1.5733510
 C       -3.4292300        1.2589540       -0.9118330
 C       -2.3198380        1.7466080       -2.9954590
 C       -4.5277070        0.7410310       -1.6192740
 C       -4.5643060        0.7431470       -3.0369130
 H       -5.3629290        0.3341790       -1.0495070
 C       -3.4373300        1.2616750       -3.7084300
 H       -3.4043650        1.2831620       -4.7966400
 C       -5.7589470        0.1978330       -3.8282130
 C       -7.0584640        1.0012320       -3.5414960
 C       -5.9664400       -1.3237070       -3.5856110
 H       -5.5290270        0.3265780       -4.8990680
 H       -6.9208450        2.0719440       -3.7543610
 H       -7.3758720        0.9021620       -2.4928080
 H       -7.8792760        0.6317810       -4.1747080
 H       -6.2266800       -1.5374950       -2.5383340
 H       -5.0582560       -1.8942600       -3.8311660
 H       -6.7852710       -1.7001720       -4.2172470
 C        1.3526310        4.1118570       -1.1270930
 C        1.5777600        5.4486940       -1.8859470
 H        2.3166090        3.8621410       -0.6699640
 H        1.1471880        3.3181820       -1.8560770
 H        0.8216780        5.6473010       -2.6525610
 H        2.5470850        5.3901600       -2.4061250
 H        1.6194310        6.3215170       -1.2218680
 C        0.5228120        5.1431660        1.1003730
 C        1.9598470        5.4971290        1.5600840
 H        0.0824000        6.0532710        0.6680910
 H       -0.0587880        4.9046520        1.9906320
 H        1.8976030        6.3607070        2.2416120
 H        2.6263050        5.7822880        0.7369750
 H        2.4409600        4.6851330        2.1157890
 C       -1.5596840        4.8324800       -1.6189830
 C       -3.0306220        5.0388440       -2.0631010
 H       -1.1694610        5.8226750       -1.3451090
 H       -0.9791240        4.5176780       -2.4904760
 H       -3.5274580        4.1153560       -2.3755140
 H       -3.0342550        5.7158190       -2.9319370
 H       -3.6478310        5.5040880       -1.2860120
 C       -2.3129810        4.0195540        0.7195680
 C       -2.6689920        5.4066430        1.3224150
 H       -3.2361220        3.6229400        0.2783970
 H       -2.0470820        3.3434600        1.5377330
 H       -3.6798520        5.3491950        1.7560040
 H       -2.6783260        6.2191760        0.5846000
 H       -1.9952000        5.6994120        2.1341080
 H        2.9286600        1.9301220       -0.0891690
 N        0.1627200        2.2175180        3.7334740
 O       -0.0356730        1.4566330        4.7482860
 O       -0.6319990        3.1676890        3.3972040
 C        4.9630450        0.9361740        4.0636480
 C        6.1529120        1.9332580        3.9992250
 C        5.4155440       -0.5136410        3.7281360
 H        4.6014470        0.9290310        5.1053800
 H        6.5948660        1.9763650        2.9925810
 H        6.9451310        1.6225590        4.6971780
 H        5.8374120        2.9508810        4.2750540
 H        6.2058170       -0.8346400        4.4238010
 H        5.8155110       -0.5883370        2.7061430
 H        4.5774930       -1.2210330        3.8123370
 H       -3.4253940        1.2308430        0.1740430
 N       -1.1675600        2.1728290       -3.8294870
 O        0.0111500        1.7996290       -3.4787270
 O       -1.4177770        2.8651770       -4.8886300
