50
M00000039_2D_DFT last geometry from G09 out file
 Ru       -0.6588480        0.0866030        0.4283430
 C        0.2825320       -0.1346500        1.9666140
 Cl        0.8582260       -0.6430090       -1.3084800
 Cl       -2.8592960        0.1499030        1.4174900
 H        0.6898800        0.6447050        2.6207480
 H        0.3983470       -1.1809380        2.3188280
 C       -0.4274870        1.9852970        0.1457690
 N        0.4659780        2.8936190        0.7075370
 N       -1.2644250        2.7050180       -0.6990260
 C        0.0466720        4.2947070        0.4236050
 C        1.7069710        2.6614270        1.3939230
 C       -0.8488510        4.1700320       -0.8397880
 H        0.9294670        4.9208860        0.2615830
 H       -0.5245110        4.7013060        1.2739110
 C       -0.0461990        4.3739300       -2.1643920
 C       -2.0590200        5.1384570       -0.7986880
 C        0.3575440        5.8499220       -2.4063040
 H        0.8478900        3.7311580       -2.1560650
 H       -0.6744240        4.0379390       -3.0025740
 C       -0.8597900        6.7994500       -2.3349830
 H        1.1132230        6.1668440       -1.6675200
 H        0.8440510        5.9283610       -3.3922350
 C       -1.6360820        6.6143890       -1.0102570
 H       -1.5348200        6.5937980       -3.1838310
 H       -0.5307350        7.8463000       -2.4380530
 H       -2.5395510        7.2458900       -1.0079040
 H       -1.0155080        6.9609700       -0.1661020
 H       -2.5912790        5.0251160        0.1581550
 H       -2.7648730        4.8634490       -1.5955270
 C        1.9714690        3.3523160        2.6035070
 C        2.7023000        1.8202700        0.8367190
 C        3.2139110        3.1960550        3.2516710
 C        4.1998800        2.3448070        2.7071930
 H        3.4045320        3.7300920        4.1841850
 C        3.9341570        1.6578450        1.5018330
 H        4.6890880        0.9995790        1.0686840
 C       -2.2533230        2.1001600       -1.5728810
 C       -1.8414510        1.3969930       -2.7311360
 C       -3.6325670        2.2354500       -1.2894760
 C       -2.8046780        0.8350710       -3.5952400
 C       -4.1802150        0.9821580       -3.3184910
 H       -2.4762780        0.2809340       -4.4758500
 C       -4.5896830        1.6823540       -2.1622590
 H       -5.6506490        1.7778390       -1.9266040
 H       -3.9455980        2.7300050       -0.3725180
 H       -4.9240350        0.5450600       -3.9867330
 H        1.2075970        3.9933550        3.0446720
 H        2.5057940        1.2883230       -0.0908780
 H        5.1590440        2.2205330        3.2120060
 H       -0.7814780        1.2714220       -2.9402820
