84
Mol_000114_2D_DFT last geometry from G09 out file
Ru       -0.0864200       -0.0419560        0.3591090
C       -1.7423150       -0.6973170        0.0056800
Cl       -0.2276470       -0.1134920        2.7659870
Cl        1.0624670       -0.6335090       -1.6805920
H       -2.6567130       -0.1666410       -0.2666780
H       -1.8253690       -1.8001850        0.1122580
C       -0.1776220        1.8613590       -0.0688330
N        0.9252520        2.6985010        0.1502000
N       -1.1482760        2.6191950       -0.7168180
C        0.6164610        4.1022640       -0.2414520
C        1.9507740        2.5332950        1.1825060
C       -0.5841330        3.9751240       -1.2113500
H        1.4891670        4.5699540       -0.7031590
H        0.3510810        4.6852750        0.6564390
C       -0.1352070        3.8755880       -2.7066890
C       -1.5918650        5.1454790       -1.0701100
C        0.4247660        5.2086290       -3.2649220
H        0.6041330        3.0734880       -2.8236330
H       -1.0095220        3.6025650       -3.3126060
C       -0.5797950        6.3681260       -3.0870050
H        1.3772380        5.4694460       -2.7742850
H        0.6611480        5.0682750       -4.3322580
C       -1.0274670        6.4840690       -1.6134790
H       -1.4627470        6.1903230       -3.7251720
H       -0.1313550        7.3168980       -3.4234140
H       -1.8038290        7.2598320       -1.5107460
H       -0.1769130        6.8159450       -0.9938370
H       -1.8785760        5.2751660       -0.0196550
H       -2.5047830        4.8983480       -1.6317570
C        1.4618690        2.7231110        2.5064790
C        3.3517910        2.3243390        0.9553150
C        2.2896860        2.6784630        3.6277880
C        3.6701000        2.4226090        3.4489730
H        1.8910180        2.8157400        4.6309800
C        4.1512680        2.2491250        2.1341910
H        5.2109030        2.0543080        2.0070090
C       -2.4051350        2.1254400       -1.2550670
C       -2.3128720        1.4915510       -2.5280640
C       -3.6872110        2.2881010       -0.6268380
C       -3.4390030        1.0975070       -3.2530520
C       -4.7257830        1.3422000       -2.7130940
H       -3.3454040        0.6146710       -4.2242710
C       -4.8086130        1.9087390       -1.4226420
H       -5.7969290        2.0567160       -0.9994370
C       -4.0410370        2.7636380        0.8320370
C       -2.8421890        3.0089930        1.7901170
C       -4.8910550        4.0762230        0.7641260
C       -4.9005900        1.6466700        1.5256990
H       -3.2397240        3.2838990        2.7785970
H       -2.1945920        3.8252670        1.4613870
H       -2.2334530        2.1096740        1.9217400
H       -4.3238870        4.9002460        0.3114810
H       -5.1799110        4.3835140        1.7803160
H       -5.8149770        3.9476910        0.1835030
H       -5.8429830        1.4360590        1.0039840
H       -5.1570440        1.9677840        2.5458850
H       -4.3362870        0.7069650        1.6055210
C       -5.9434510        0.9658780       -3.5241410
C       -7.3400600        1.1751530       -2.9382540
O       -5.8086900        0.4809490       -4.6819190
H       -7.5190380        2.2343270       -2.6956690
H       -8.0845470        0.8490770       -3.6729680
H       -7.4757080        0.5948410       -2.0122050
H        0.3951240        2.8842160        2.6393560
C        4.1473680        2.1569390       -0.3882910
C        4.7230370        0.7015600       -0.4476650
C        3.3437850        2.3939140       -1.6943060
C        5.3327550        3.1837590       -0.4159290
H        3.9139910       -0.0386070       -0.4887940
H        5.3578330        0.4684830        0.4181390
H        5.3366260        0.5817480       -1.3534110
H        2.4816150        1.7317270       -1.7789180
H        4.0034280        2.1894480       -2.5509790
H        3.0177140        3.4375310       -1.7851790
H        4.9653330        4.2162150       -0.3113680
H        5.8579770        3.1071260       -1.3795980
H        6.0768490        3.0108060        0.3723390
C        4.5647600        2.3566130        4.6636950
C        6.0290810        1.9456630        4.5044090
O        4.1070640        2.6368950        5.8065780
H        6.5810470        2.6700060        3.8845710
H        6.4950260        1.9040140        5.4952310
H        6.1182420        0.9598960        4.0226560
H       -1.3214450        1.2885370       -2.9238760
