81
Mol_000155_2D_DFT last geometry from G09 out file
Ru        0.0093660       -0.2169430       -0.9185020
C       -1.6839150       -0.8611170       -1.0408460
Cl        0.6278810       -1.3471520        1.1224060
Cl        0.4019580        0.2472960       -3.2717870
H       -2.6325610       -0.3791760       -0.7933010
H       -1.7480350       -1.9066260       -1.4117090
C       -0.1181100        1.6674430       -0.4048960
N        1.0323050        2.3834970       -0.0496790
N       -1.1693890        2.5552560       -0.5287520
C        2.0584710        1.8620930        0.8584680
C        0.8394920        3.8936000       -0.3598330
C        3.4194850        1.5747080        0.5088750
C        1.6448130        1.6968960        2.2062210
C        4.2863680        1.1497040        1.5562450
C        3.8631800        1.0004000        2.8880020
H        5.3169380        0.9080620        1.2962640
C        2.5220980        1.2732310        3.2169460
H        2.1574110        1.1448040        4.2368550
C       -0.7646390        4.0146240       -0.1750280
C       -2.4658060        2.2116370       -1.0930350
C       -3.6278290        1.9343750       -0.2988390
C       -2.5559660        2.1842090       -2.5063160
C       -4.8451420        1.6851010       -0.9964210
C       -4.9287070        1.6791270       -2.4007590
H       -5.7350460        1.4517660       -0.4121690
C       -3.7689630        1.9177870       -3.1651500
H       -3.8004050        1.8891430       -4.2548960
H       -5.8821250        1.4684820       -2.8877830
C        1.3606020        4.0509640       -1.8421830
C        1.5352460        5.4482700       -2.4950620
H        2.3440810        3.5697150       -1.8437350
H        0.7421580        3.4232200       -2.4976210
H        2.0314060        6.1735770       -1.8373660
H        0.5941430        5.8962960       -2.8337960
H        2.1736480        5.3322420       -3.3854400
C        1.5732920        4.8541950        0.6247140
C        3.1087320        5.0389730        0.5727090
H        1.1209510        5.8406640        0.4525590
H        1.3140040        4.5738010        1.6509770
H        3.6390120        4.1983180        1.0266390
H        3.3674410        5.9385750        1.1544850
H        3.4995700        5.1801660       -0.4402930
C       -1.3797340        5.0619780       -1.1597710
C       -2.8736510        5.4607000       -1.0510410
H       -0.7906710        5.9796120       -1.0247630
H       -1.1956670        4.7318940       -2.1878950
H       -3.1515940        5.8271670       -0.0558450
H       -3.5534300        4.6451610       -1.3122720
H       -3.0619840        6.2810760       -1.7626480
C       -1.2687800        4.2660260        1.2962100
C       -1.2046010        5.6768890        1.9458950
H       -2.3222570        3.9756010        1.2853250
H       -0.7806920        3.5476770        1.9660720
H       -1.4688940        6.4862680        1.2539140
H       -0.2239690        5.9148310        2.3724410
H       -1.9308160        5.7094010        2.7737770
C        4.0654830        1.6742030       -0.8475900
C        5.2153140        2.4943080       -1.0196180
C        3.6583820        0.8713300       -1.9396210
C        5.9092640        2.5316310       -2.2455460
H        5.5656020        3.1111070       -0.1915220
C        5.4767960        1.7379430       -3.3306490
H        6.7850330        3.1750580       -2.3506880
C        4.3493370        0.9061450       -3.1684930
H        6.0127430        1.7626880       -4.2811850
H        4.0016350        0.2797130       -3.9907730
H        2.8109730        0.2011570       -1.8416990
H        0.6048270        1.8907720        2.4559820
H        4.5667620        0.6593030        3.6489730
C       -3.6891180        1.8412470        1.2017430
C       -4.7198390        2.5291590        1.9004480
C       -2.8116760        1.0166600        1.9546210
C       -4.8633810        2.4077250        3.2973350
H       -5.4023980        3.1778010        1.3490780
C       -3.9844720        1.5820980        4.0317350
H       -5.6587920        2.9536680        3.8082970
C       -2.9616830        0.8876830        3.3508510
H       -4.0980500        1.4786250        5.1122880
H       -2.2821480        0.2329700        3.8992630
H       -2.0223590        0.4566330        1.4624760
H       -1.6519080        2.3462890       -3.0863740
