63
Mol_000154_2D_DFT last geometry from G09 out file
Ru        0.3294600        0.6523830       -1.6917550
C        2.1457370        0.6327860       -1.7138670
Cl        0.0013910        1.6534840       -3.8769320
Cl       -0.2095620       -1.0280690       -0.0568400
H        2.8354760        1.3924000       -1.3333260
H        2.6061900       -0.2364210       -2.2297950
C       -0.0367960        2.2365260       -0.6395910
N        0.8038760        3.0729400        0.0863730
N       -1.3094560        2.8045800       -0.6004480
C        0.0458150        4.2145930        0.6848780
C        2.0776080        2.7498280        0.6566750
C       -1.2659790        4.2477590       -0.1371290
H        0.6215540        5.1408570        0.5954960
H       -0.1422540        4.0066190        1.7511690
C       -2.4882890        4.7655280        0.6614710
C       -1.2004100        5.2515310       -1.3346090
C       -2.3611730        6.3122540        0.5987260
H       -2.5235960        4.3785000        1.6866420
H       -3.4094040        4.4440780        0.1547900
C       -1.5799110        6.6290880       -0.7237710
H       -3.3501270        6.7927300        0.6203220
H       -1.8067920        6.6893830        1.4718280
H       -0.6835910        7.2299070       -0.5092900
H       -2.1901760        7.2143710       -1.4269110
H       -1.9453630        4.9505940       -2.0836630
H       -0.2195970        5.2451000       -1.8268860
C        3.2442970        3.5164230        0.4271380
C        2.2046300        1.6743990        1.5736930
C        4.4690050        3.2479700        1.0535880
C        4.5907810        2.1547900        1.9685620
H        5.3185920        3.8794550        0.8163830
C        3.4167250        1.3698140        2.2045810
H        3.4420060        0.5197080        2.8807810
C       -2.5203950        2.1329980       -0.9893700
C       -3.0221970        2.1986750       -2.3135540
C       -3.3154420        1.4098550       -0.0602220
C       -4.2108160        1.5675350       -2.7012440
C       -4.9874060        0.8184410       -1.7625510
H       -4.5135190        1.6424810       -3.7420350
C       -4.5040790        0.7632800       -0.4170090
H       -5.0416480        0.2160890        0.3498480
Cl        3.2131180        4.9045720       -0.7591440
H        1.3308810        1.0536190        1.7649130
N        5.8053330        1.8708920        2.5979830
C        5.9128700        0.7252370        3.5142620
C        6.9938120        2.6917620        2.3255690
H        5.2363080        0.8279110        4.3800300
H        6.9372800        0.6596900        3.8977530
H        5.6812230       -0.2282730        3.0090410
H        7.2889660        2.6508710        1.2622180
H        7.8374310        2.3231500        2.9196890
H        6.8314280        3.7494670        2.5961130
H       -2.4326570        2.7220820       -3.0609600
Cl       -2.8260390        1.2903250        1.6904760
N       -6.1649340        0.1661070       -2.1330350
C       -6.6261600        0.2110620       -3.5289810
C       -6.9072980       -0.6423840       -1.1544190
H       -6.8159200        1.2455110       -3.8619200
H       -7.5658200       -0.3452120       -3.6210200
H       -5.8948390       -0.2435210       -4.2199530
H       -7.7858630       -1.0849530       -1.6370370
H       -7.2637250       -0.0326780       -0.3063590
H       -6.2932620       -1.4665790       -0.7514630
