85
M00000268_2D_DFT last geometry from G09 out file
 Ru        0.2599570       -0.0665180       -0.6792450
 C       -1.3422620       -0.8930850       -0.4657700
 Cl        1.2398620       -0.9318810        1.3584030
 Cl        0.2860350        0.1672450       -3.0900930
 H       -2.2624390       -0.5315320       -0.0090620
 H       -1.3557630       -1.9557700       -0.7885040
 C       -0.0384320        1.8079720       -0.2670590
 N        1.0545040        2.6520090        0.0263490
 N       -1.1634770        2.6184760       -0.4247670
 C        0.7290280        4.1178340       -0.2425420
 C        2.0693020        2.3375570        1.0398890
 C       -0.8342440        4.1162150       -0.4032790
 H        1.0035420        4.6778220        0.6588390
 H       -1.0891740        4.4905180       -1.4031130
 C        1.7405540        2.6992490        2.3689050
 C        3.3519730        1.7512880        0.8311740
 C        2.6308300        2.5482710        3.4405630
 C        3.9235810        2.0124730        3.2359790
 H        2.3018370        2.8340350        4.4399190
 C        4.2456830        1.6168820        1.9238910
 H        5.2148230        1.1552190        1.7414030
 C       -2.3911970        2.1802070       -1.0775160
 C       -2.4591330        2.3339150       -2.4822990
 C       -3.5425010        1.6573040       -0.4170070
 C       -3.6096010        2.0155410       -3.2179440
 C       -4.7693720        1.5221100       -2.5744970
 H       -3.5872330        2.1376770       -4.3006540
 C       -4.7017150        1.3506380       -1.1773160
 H       -5.5702960        0.9493330       -0.6570800
 H       -1.5703720        2.6726260       -3.0066870
 C       -3.6898390        1.3892770        1.0671800
 F       -4.4758750        2.3817700        1.7305260
 F       -2.4973490        1.2878440        1.7993210
 F       -4.3859710        0.1680790        1.3095680
 C        1.5718000        4.7570180       -1.4482250
 C        3.0325820        4.9973970       -0.9616320
 C        1.5667290        3.8610950       -2.7157880
 C        1.0298210        6.1589940       -1.8681580
 H        3.6124170        5.4944140       -1.7532900
 H        3.5566330        4.0747840       -0.7144910
 H        3.0534490        5.6530150       -0.0762700
 H        1.9173990        2.8470950       -2.5201620
 H        2.2242390        4.3037890       -3.4786680
 H        0.5639730        3.7888690       -3.1605730
 H        1.0939180        6.8949510       -1.0576280
 H       -0.0042930        6.1328860       -2.2360210
 H        1.6514540        6.5310870       -2.6957610
 C       -6.0434560        1.1566080       -3.3444980
 C       -5.8037570       -0.0306450       -4.3196350
 C       -6.6517910        2.3825280       -4.0809370
 H       -6.7891750        0.8213160       -2.6042450
 H       -5.4115670       -0.9100310       -3.7875740
 H       -5.0854630        0.2310740       -5.1106300
 H       -6.7480020       -0.3192980       -4.8059580
 H       -6.8585390        3.2063280       -3.3812550
 H       -7.5994890        2.1020010       -4.5651660
 H       -5.9782750        2.7631750       -4.8632820
 C       -1.6688630        5.0238080        0.6204290
 C       -1.6079150        4.5194790        2.0892510
 C       -1.1308240        6.4901020        0.6226260
 C       -3.1520570        5.1348380        0.1456880
 H       -0.6433680        4.7656140        2.5549380
 H       -1.7718700        3.4440450        2.1753910
 H       -2.3834270        5.0232310        2.6842990
 H       -1.7139400        7.0686720        1.3541800
 H       -1.2492820        6.9799600       -0.3516360
 H       -0.0785270        6.5617480        0.9236740
 H       -3.7190780        4.2127200        0.2702750
 H       -3.2106840        5.4347230       -0.9120860
 H       -3.6664100        5.9083420        0.7348480
 H        0.7447260        3.0828790        2.5636370
 C        3.8839910        1.2005870       -0.4712560
 F        4.7763430        2.1025760       -1.1359720
 F        2.8962940        0.8750760       -1.4197640
 F        4.6457240        0.0216740       -0.2885180
 C        4.9259240        1.8180290        4.3786520
 C        4.4182920        0.7717590        5.4110950
 C        5.3003880        3.1605560        5.0655950
 H        5.8510240        1.4118500        3.9365440
 H        3.5085490        1.1167020        5.9250210
 H        5.1876300        0.5891210        6.1769480
 H        4.1856130       -0.1859890        4.9231750
 H        4.4325170        3.6205790        5.5617410
 H        5.6975330        3.8840440        4.3375980
 H        6.0715290        2.9923260        5.8328010
