55
Mol_000071_2D_DFT last geometry from G09 out file
Ru       -0.0179550        0.0284660        0.3449260
C       -1.2379670       -0.6874940       -0.7971230
Cl       -1.1677430       -0.0297880        2.4438990
Cl        1.9778610       -0.6064880       -0.8427890
H       -1.7843560       -0.2161080       -1.6175760
H       -1.3944110       -1.7789410       -0.6690730
C       -0.1178780        1.9480110        0.0102090
N        0.8641090        2.8280440        0.4709200
N       -1.0802330        2.7277840       -0.6247590
C        0.6480290        4.2611740        0.0595650
C        2.1254320        2.4477270        1.0691130
C        0.7125680        5.3030660        1.2142400
C       -0.7155020        4.1964010       -0.6937270
H        1.4417790        4.5083710       -0.6545880
C       -0.5782990        5.4523380        1.9898020
H        1.5577090        5.0688790        1.8748160
H        0.9709720        6.2685250        0.7397080
C       -1.7633320        5.3889370        1.3409500
H       -0.5320110        5.6082970        3.0691360
C       -1.7990090        5.1779970       -0.1575240
H       -2.7085620        5.4786350        1.8760300
H       -2.7924510        4.8497050       -0.4853080
H       -1.6142770        6.1430840       -0.6667900
H       -0.5526530        4.4379780       -1.7521620
C        2.2075070        2.2938150        2.4870110
C        3.3319160        2.2835710        0.3011250
C        3.4530540        1.9440860        3.0745120
C        4.6135610        1.7725830        2.3071840
H        3.4965220        1.8173450        4.1574140
C        4.5543420        1.9494760        0.9159360
H        5.4337680        1.8146530        0.2923450
C       -2.1788060        2.2750980       -1.4430860
C       -2.0015530        2.1996100       -2.8632340
C       -3.4533660        1.9157800       -0.9113890
C       -3.1061400        1.8425190       -3.6775830
C       -4.3604670        1.5199150       -3.1306290
H       -2.9632510        1.7974540       -4.7581110
C       -4.5287230        1.5302320       -1.7368750
H       -5.4721600        1.2416960       -1.2787400
C        1.0360010        2.5118650        3.4274990
H        0.1194290        2.8039830        2.9160350
H        1.2918360        3.2889540        4.1652810
H        0.8139000        1.5912230        3.9828520
N        3.4145110        2.4243110       -1.1907330
O        2.4236610        2.9218300       -1.8415540
O        4.5000260        2.0556270       -1.7684090
H        5.5579270        1.5054410        2.7815890
C       -0.6640450        2.4500220       -3.5410160
H        0.1900660        2.2498560       -2.8902620
H       -0.5808650        3.4911490       -3.8941250
H       -0.5653980        1.8072730       -4.4263640
N       -3.7679310        1.8925620        0.5518620
O       -3.3641020        2.8598750        1.2862590
O       -4.4848550        0.9136460        0.9727830
H       -5.1921820        1.2421500       -3.7782750
