83
Mol_000069_2D_DFT last geometry from G09 out file
Ru       -0.0051160       -0.0686500        0.3443140
C       -1.3217400       -0.7961840       -0.6738710
Cl       -0.9652130       -0.5286990        2.5186600
Cl        1.8123160       -0.4020700       -1.2187240
H       -2.0996530       -0.2967400       -1.2550280
H       -1.3141980       -1.9071260       -0.7063540
C       -0.2665940        1.8667680        0.1933270
N        0.6580500        2.7663510        0.7438160
N       -1.2641710        2.6173060       -0.4200860
C        0.4359960        4.1511710        0.1729930
C        1.8809760        2.3985030        1.4589870
C       -1.1015640        4.1280240       -0.1516400
H        0.9371880        4.1659160       -0.8064070
C        3.1243110        2.3744360        0.7577970
C        1.8221360        2.1503430        2.8650980
C        4.3120400        2.0396580        1.4665720
C        4.2481290        1.6730190        2.8412360
C        3.0136660        1.7600970        3.5461860
C       -2.3774030        2.1361680       -1.2268340
C       -3.6331540        1.8442810       -0.6125490
C       -2.1989360        2.0110610       -2.6402280
C       -4.7480140        1.5263960       -1.4428460
C       -4.5945010        1.4419370       -2.8569620
C       -3.3203720        1.6711660       -3.4544580
C        0.9919190        5.3483970        0.9409150
C        1.7577520        6.2932900        0.2097500
C        0.7725400        5.6020410        2.3176410
C        2.2769940        7.4529080        0.8210330
H        1.9542360        6.1220720       -0.8505930
C        2.0496600        7.6887100        2.1929410
H        2.8614040        8.1612500        0.2312130
C        1.2967860        6.7543800        2.9358610
H        2.4550390        8.5799760        2.6749560
H        1.1175850        6.9213930        3.9995470
H        0.1973590        4.9041930        2.9158390
C       -1.4056180        5.0029810       -1.3894920
H       -2.4563450        4.9135120       -1.6915450
H       -0.7762160        4.7456770       -2.2473670
H       -1.2173970        6.0547860       -1.1325890
C       -2.0252110        4.5862020        1.0053850
H       -1.8804810        3.9968470        1.9160700
H       -3.0736790        4.4976240        0.7001820
H       -1.8345650        5.6410220        1.2393280
C        3.2175640        2.6924680       -0.7272900
H        3.9199530        2.0191890       -1.2300590
H        3.5695380        3.7249010       -0.8926720
H        2.2612880        2.5599430       -1.2343480
C        0.5344820        2.3163230        3.6575420
H        0.6489370        3.1010810        4.4224570
H        0.2543550        1.3894650        4.1700770
H       -0.3061070        2.5795480        3.0157000
C        5.6521930        2.0571360        0.7375100
H        6.4918280        2.2047560        1.4257230
H        5.6986920        2.8654880       -0.0029150
H        5.8314180        1.1121510        0.1955380
C        5.5070010        1.1881500        3.5552400
H        5.2709650        0.5828660        4.4363810
H        6.1355650        2.0295500        3.8960500
H        6.1266590        0.5666420        2.8960200
C        2.9774740        1.4387100        5.0382840
H        2.0542810        1.7740320        5.5177040
H        3.8127860        1.9106700        5.5751730
H        3.0503860        0.3516480        5.2127580
C       -3.7845250        1.7649450        0.9006470
H       -2.8240880        1.8255780        1.4103610
H       -4.2324430        0.8033390        1.1883160
H       -4.4373920        2.5566540        1.2997600
C       -0.8234480        2.1629320       -3.2783470
H       -0.7891060        2.9992320       -3.9936670
H       -0.5499080        1.2519910       -3.8304450
H       -0.0437160        2.3205460       -2.5334320
C       -6.1124010        1.2531020       -0.8174140
H       -6.9251650        1.6774610       -1.4216390
H       -6.2003630        1.6768310        0.1877770
H       -6.3085430        0.1701420       -0.7294160
C       -5.8008170        1.0733830       -3.7153620
H       -5.5172580        0.7455260       -4.7195710
H       -6.4864350        1.9303880       -3.8334480
H       -6.3837700        0.2603140       -3.2615620
C       -3.1644760        1.5512440       -4.9690240
H       -3.9242250        2.1453500       -5.4983130
H       -3.2784050        0.5074260       -5.3062160
H       -2.1876140        1.8943070       -5.3186530
