97
M00000394_2D_DFT last geometry from G09 out file
 Ru       -0.7134530       -0.4496800        0.5900580
 C       -2.2775550       -1.0202680       -0.1354040
 Cl       -1.4104470       -0.2499540        2.8924210
 Cl        0.8117320       -1.3412150       -1.0557050
 H       -3.0183440       -0.4574610       -0.7076340
 H       -2.4962490       -2.0966080        0.0351780
 C       -0.6289480        1.4392700        0.1159760
 N        0.4435560        2.2409230        0.5129030
 N       -1.4930090        2.2504110       -0.6101800
 C        0.3551420        3.6329880       -0.0102670
 C        1.5894180        1.8511070        1.3232080
 C       -1.0424990        3.6743040       -0.6610960
 H        0.4598290        4.3570070        0.8078430
 H       -1.0137650        4.0263100       -1.7002760
 C        1.5379940        2.0216290        2.7426120
 C        2.7832480        1.3866520        0.6921940
 C        2.6326960        1.5670360        3.5112770
 C        3.7861880        0.9981920        2.9273170
 H        2.5662060        1.6565690        4.5961270
 C        3.8456650        0.9497870        1.5190200
 H        4.7414510        0.5497900        1.0397910
 C       -2.7449620        1.9295790       -1.2663840
 C       -2.7360230        1.5349410       -2.6402340
 C       -3.9743440        2.0845220       -0.5582570
 C       -3.9740510        1.2698470       -3.2695390
 C       -5.2106760        1.3961850       -2.5972440
 H       -3.9591320        0.9429250       -4.3099200
 C       -5.1799140        1.8059860       -1.2471000
 H       -6.1212410        1.8974270       -0.7015680
 C       -1.4551070        1.3579870       -3.4525110
 C       -1.2519950        2.4311660       -4.5624640
 H       -1.4802310        0.3675650       -3.9364450
 H       -0.5783560        1.3471590       -2.7963570
 C        0.0231670        2.1867690       -5.3991540
 H       -1.2050440        3.4345730       -4.1059180
 H       -2.1285470        2.4420370       -5.2307240
 H       -0.0142400        1.2090460       -5.9050840
 H        0.1433390        2.9613170       -6.1729550
 H        0.9264610        2.1970780       -4.7690850
 C       -4.0533230        2.4958360        0.9103390
 C       -4.6820790        3.8998450        1.1490220
 H       -4.6649320        1.7523320        1.4483560
 H       -3.0627100        2.4575700        1.3761930
 C       -4.7954210        4.2575220        2.6506080
 H       -4.0823450        4.6698710        0.6335860
 H       -5.6849940        3.9393770        0.6926010
 C       -5.4135970        5.6504030        2.9038540
 H       -3.7952940        4.2109060        3.1156120
 H       -5.4035670        3.4899390        3.1603180
 H       -6.4312450        5.7181690        2.4867410
 H       -4.8097040        6.4478300        2.4412400
 H       -5.4797550        5.8645390        3.9821760
 H        1.1600450        3.8189330       -0.7357770
 C       -6.5472580        1.0912930       -3.2881710
 C       -6.6578350       -0.3983430       -3.7189300
 C       -6.8196060        2.0455950       -4.4846700
 H       -7.3442790        1.2707810       -2.5467740
 H       -7.6532370       -0.6020320       -4.1434910
 H       -6.5096270       -1.0712040       -2.8609230
 H       -5.9091280       -0.6569880       -4.4825390
 H       -6.0817280        1.9083880       -5.2892770
 H       -6.7817610        3.0990180       -4.1685620
 H       -7.8170550        1.8527070       -4.9094610
 H       -1.7453550        4.3114430       -0.1051470
 C        0.3873210        2.7131600        3.4680440
 C        0.7620630        4.1260590        4.0069750
 H        0.0709520        2.0893860        4.3166550
 H       -0.4895680        2.7963410        2.8172680
 C       -0.4073100        4.8083010        4.7511630
 H        1.0931680        4.7701020        3.1740950
 H        1.6254140        4.0432330        4.6869380
 H       -0.7379370        4.2040860        5.6108430
 H       -0.1112980        5.7991750        5.1305020
 H       -1.2785090        4.9485650        4.0910870
 C        3.0004460        1.3843180       -0.8179050
 C        3.9948400        2.4845660       -1.2949290
 H        3.3938440        0.4033310       -1.1217540
 H        2.0494270        1.4982110       -1.3486720
 C        4.2228910        2.4640850       -2.8256760
 H        3.6264030        3.4807210       -0.9934590
 H        4.9630450        2.3520250       -0.7845980
 C        5.2173470        3.5417120       -3.3122240
 H        3.2563400        2.5998580       -3.3426530
 H        4.5904210        1.4665880       -3.1234620
 H        6.2070340        3.4106080       -2.8460390
 H        4.8636910        4.5555590       -3.0637390
 H        5.3535050        3.4931820       -4.4042530
 C        4.9424970        0.4504510        3.7745970
 C        4.5063830       -0.7898280        4.6051020
 C        5.5873450        1.5371780        4.6791960
 H        5.7245740        0.1095890        3.0750140
 H        4.0888870       -1.5730670        3.9549920
 H        3.7389510       -0.5283790        5.3488960
 H        5.3680090       -1.2145430        5.1438840
 H        4.8811090        1.9069240        5.4376220
 H        5.9262270        2.3991780        4.0845820
 H        6.4598220        1.1248930        5.2098650
