57
M00000422_2D_DFT last geometry from G09 out file
 Ru       -0.1697820        0.5143490        1.0761080
 C       -1.6055730       -0.3586460        0.3873020
 Cl       -1.0814470        1.3720390        3.1485270
 Cl        1.5851230       -0.5976270       -0.1474840
 H       -2.2889170       -0.0548100       -0.4092410
 H       -1.7808470       -1.3633090        0.8295050
 C       -0.1418790        2.2297090        0.1547290
 N        0.9547860        3.0860280        0.2710480
 N       -1.1067120        2.9024890       -0.5893610
 C        0.7808690        4.2887880       -0.6224530
 C        2.1180010        2.8802260        1.1033030
 C        1.3558550        5.6520580       -0.2206610
 C       -0.7442500        4.3685450       -0.6883550
 H        1.1993430        4.0134170       -1.5994010
 C        0.9356660        6.6499220       -1.3429470
 H        2.4521690        5.6211770       -0.1447890
 H        0.9586040        5.9758970        0.7546200
 C       -0.5890390        6.6387340       -1.6530700
 H        1.4949780        6.3993620       -2.2602810
 H        1.2406220        7.6694240       -1.0569430
 C       -1.1722880        5.2124280       -1.8937930
 H       -1.1351610        7.1011610       -0.8135990
 H       -0.7844150        7.2650820       -2.5383150
 H       -2.2663720        5.2706410       -1.9754260
 H       -0.7808700        4.7884700       -2.8321910
 H       -1.1451020        4.8453180        0.2182370
 C        1.9502770        3.1079120        2.4897400
 C        3.4060290        2.4907360        0.6013690
 C        3.0204320        2.9630450        3.3940960
 C        4.2898700        2.5897250        2.9130200
 H        2.8560850        3.1407600        4.4575440
 C        4.4649410        2.3499490        1.5376420
 H        5.4495240        2.0495560        1.1840730
 C       -2.2840480        2.3622260       -1.2136170
 C       -2.1137650        1.6893030       -2.4474980
 C       -3.5930970        2.4943300       -0.6567550
 C       -3.2153260        1.1578360       -3.1462390
 C       -4.5117700        1.2897130       -2.6062420
 H       -3.0603600        0.6466990       -4.0972710
 C       -4.6882210        1.9390960       -1.3688570
 H       -5.6951660        2.0368320       -0.9625180
 H        0.9652910        3.3871260        2.8549100
 C        3.7021310        2.2153350       -0.8576420
 C        4.8038250        1.2130020       -1.2026720
 O        3.0821650        2.8025800       -1.7848630
 H        5.8014490        1.6572200       -1.0518260
 H        4.7328420        0.3067340       -0.5886180
 H        4.7081870        0.9478940       -2.2616280
 H        5.1319310        2.4778120        3.5973050
 H       -1.1042660        1.5780550       -2.8427630
 C       -3.8723200        3.2465010        0.6343650
 C       -4.6747990        2.5442120        1.7206890
 O       -3.4348560        4.4151330        0.8023490
 H       -3.9885380        1.8788280        2.2700530
 H       -5.0720900        3.2829180        2.4272760
 H       -5.4869500        1.9204890        1.3257310
 H       -5.3756710        0.8892680       -3.1384210
