83
Mol_000145_2D_DFT last geometry from G09 out file
 Ru        0.1773570        0.2496810       -0.2552570
 C       -1.2820060       -0.6731120       -0.8124680
 Cl        0.0802980       -0.3074760        2.0900780
 Cl        1.2847280        0.4345100       -2.4041990
 H       -2.2906260       -0.3325580       -1.0515680
 H       -1.0919370       -1.7622600       -0.9306550
 C       -0.3006140        2.1355100       -0.1923790
 N        0.6646580        3.0785210        0.1728940
 N       -1.4439120        2.8162600       -0.5655170
 C        1.7076460        2.8032290        1.1608160
 C        0.2713730        4.4954250       -0.3309430
 C        3.0860100        2.5636890        0.8437280
 C        1.2874360        2.8036980        2.5178220
 C        3.9744080        2.3669200        1.9304540
 C        3.5305950        2.4002150        3.2613930
 H        5.0293270        2.1906870        1.7470900
 C        2.1772350        2.6085930        3.5800930
 H        1.8412890        2.6026800        4.6135350
 C       -1.3359360        4.3486730       -0.2866890
 C       -2.5610460        2.2163330       -1.2682910
 C       -3.7278570        1.7257030       -0.5960870
 C       -2.4659890        2.1391470       -2.6816720
 C       -4.8016650        1.2780070       -1.4044700
 C       -4.7023290        1.2643520       -2.8062900
 H       -5.7221470        0.9256870       -0.9474230
 C       -3.5254070        1.6648040       -3.4678830
 H       -3.4514910        1.6067770       -4.5508820
 N       -5.8677140        0.7942190       -3.6106920
 O       -5.7509320        0.7860160       -4.8914570
 O       -6.9289060        0.4257510       -2.9831660
 C        0.8833580        4.6034780       -1.7828130
 C        0.8441530        5.9371860       -2.5782390
 H        1.9379780        4.3421700       -1.6613660
 H        0.4613460        3.8014440       -2.4033120
 H        1.0870020        6.8142280       -1.9650470
 H       -0.1176230        6.1299970       -3.0655590
 H        1.6004040        5.8838690       -3.3774100
 C        0.7825310        5.6426220        0.5931130
 C        2.2775470        6.0472100        0.5752110
 H        0.1995770        6.5341300        0.3228970
 H        0.5178640        5.4082290        1.6295180
 H        2.6430160        6.3134640       -0.4232740
 H        2.9317760        5.2701310        0.9807580
 H        2.4006520        6.9367930        1.2130900
 C       -2.0392090        5.2126060       -1.3819130
 C       -3.5824560        5.3540730       -1.3894040
 H       -1.6222490        6.2245250       -1.2852210
 H       -1.7314240        4.8528930       -2.3689950
 H       -3.9796930        5.7943120       -0.4672530
 H       -4.1023150        4.4069050       -1.5611860
 H       -3.8608120        6.0291260       -2.2142350
 C       -2.0064650        4.5820350        1.1203450
 C       -2.1982500        6.0139050        1.6934810
 H       -3.0062210        4.1477060        1.0288010
 H       -1.4860530        3.9696360        1.8680490
 H       -2.5182350        6.7430540        0.9389310
 H       -1.3006720        6.4118130        2.1782580
 H       -2.9865540        5.9781360        2.4620270
 C        3.6588210        2.5616550       -0.5729010
 C        4.7612280        1.5076690       -0.8667050
 H        4.0863770        3.5612170       -0.7724400
 H        2.8514850        2.4095490       -1.2937060
 C        5.2570860        1.5842900       -2.3276730
 H        4.3623460        0.5004090       -0.6692450
 H        5.6256740        1.6458330       -0.1984960
 H        5.6870170        2.5736920       -2.5555130
 H        6.0395650        0.8318620       -2.5104670
 H        4.4381650        1.3944540       -3.0362400
 H        0.2327490        2.9377080        2.7379500
 N        4.5184780        2.2072750        4.3612390
 O        5.7492710        2.0035150        4.0453090
 O        4.0889470        2.2610960        5.5729290
 C       -3.8607940        1.6344120        0.9242950
 C       -4.3758210        0.2725420        1.4730950
 H       -4.5552060        2.4188800        1.2740600
 H       -2.8908290        1.8379830        1.3878220
 C       -4.3984890        0.2483630        3.0172070
 H       -3.7265240       -0.5396300        1.1131500
 H       -5.3895830        0.0627870        1.0966340
 H       -5.0441010        1.0428130        3.4256620
 H       -4.7837380       -0.7153730        3.3833550
 H       -3.3869690        0.3793800        3.4304200
 H       -1.5376780        2.4410630       -3.1607090
