85
Mol_000140_2D_DFT last geometry from G09 out file
 Ru        0.3153390       -0.2709450       -0.2626020
 C       -0.9511290       -1.1501980       -1.2203780
 Cl       -0.4134540       -0.9470060        1.9449290
 Cl        1.9612540       -0.0172770       -2.0431440
 H       -1.8778930       -0.7850620       -1.6663420
 H       -0.7356160       -2.2340920       -1.3512520
 C       -0.2207090        1.6072650       -0.2076070
 N        0.5581830        2.5144170        0.5052160
 N       -1.2286010        2.3129540       -0.8424260
 C        1.6908770        2.1044000        1.3368850
 C        0.3041230        3.9555280        0.0100190
 C        2.9257810        1.8171000        0.7074500
 C        1.5871620        2.0030840        2.7638180
 C        4.0633860        1.4516960        1.4492720
 C        3.9979650        1.3645460        2.8560660
 H        4.9922640        1.2251260        0.9236570
 C        2.7559500        1.6427290        3.4756200
 H        2.6976630        1.5548360        4.5591050
 C       -1.2536430        3.7990200       -0.3780990
 C       -2.3472710        1.6920150       -1.5319620
 C       -3.4022660        1.1609010       -0.7442260
 C       -2.4241500        1.6055810       -2.9534230
 C       -4.5504110        0.6071210       -1.3312380
 C       -4.6854390        0.5685720       -2.7417100
 H       -5.3374290        0.2010890       -0.6930020
 C       -3.6105360        1.0593130       -3.5142980
 H       -3.6897930        1.0124860       -4.6012260
 C       -5.9406390        0.0114390       -3.3925520
 H       -5.8133380       -0.1230330       -4.4753020
 H       -6.7995720        0.6860320       -3.2401070
 H       -6.2175210       -0.9631250       -2.9616140
 C        1.2815800        4.1632820       -1.2162900
 C        1.4212990        5.5450640       -1.9105560
 H        2.2751270        3.9092390       -0.8284780
 H        1.0602440        3.4022500       -1.9747570
 H        0.6037700        5.7701230       -2.6040900
 H        2.3509250        5.5431110       -2.5021480
 H        1.4936850        6.3792220       -1.2010740
 C        0.5479000        5.0424270        1.1006910
 C        1.9970390        5.4207630        1.5004160
 H        0.0553400        5.9585470        0.7429770
 H        0.0185210        4.7487370        2.0097620
 H        2.5935040        5.7928400        0.6589410
 H        2.5425330        4.5889570        1.9557830
 H        1.9496740        6.2309650        2.2462750
 C       -1.6889030        4.7789460       -1.5132650
 C       -3.1869950        4.9146570       -1.8891090
 H       -1.3382300        5.7768730       -1.2128210
 H       -1.1373110        4.5241250       -2.4221340
 H       -3.8113090        5.2554210       -1.0547240
 H       -3.6180820        3.9849540       -2.2712560
 H       -3.2752580        5.6700450       -2.6870200
 C       -2.2557540        3.8670850        0.8389840
 C       -2.6387380        5.2257940        1.4892280
 H       -3.1890280        3.4320820        0.4628690
 H       -1.8993610        3.1876760        1.6225840
 H       -1.8952530        5.5894760        2.2065240
 H       -3.5809980        5.0934680        2.0449250
 H       -2.8070170        6.0241790        0.7558840
 H        2.9901890        1.8475160       -0.3749810
 C        0.2818810        2.2657100        3.5172520
 C        0.1253340        1.5984670        4.9066800
 H       -0.5488410        1.9284090        2.8881710
 H        0.1553440        3.3539760        3.6530170
 C       -1.2945520        1.7932120        5.4838080
 H        0.8544470        2.0162010        5.6209790
 H        0.3362110        0.5222290        4.8192100
 H       -2.0519760        1.3258430        4.8353010
 H       -1.3794540        1.3324520        6.4804800
 H       -1.5477610        2.8615610        5.5878750
 C        5.2015270        0.9436960        3.6827140
 H        6.1403510        1.0694850        3.1256870
 H        5.1281260       -0.1193120        3.9680870
 H        5.2777450        1.5241510        4.6144720
 H       -3.2966220        1.1512120        0.3387340
 C       -1.3107920        2.0569350       -3.8961500
 C       -0.7863940        0.9567600       -4.8639020
 H       -0.4599150        2.4236840       -3.3147680
 H       -1.6765000        2.9027400       -4.5061950
 C        0.3270810        1.4816710       -5.7962080
 H       -1.6138670        0.5636500       -5.4764130
 H       -0.3938600        0.1164180       -4.2738650
 H        1.1980910        1.8243550       -5.2172770
 H        0.6744180        0.6861890       -6.4736560
 H       -0.0252470        2.3219680       -6.4172980
