91
Mol_000220_2D_DFT last geometry from G09 out file
 Ru        1.0236470        0.1488230        0.0021500
 C       -0.3256470       -0.9024890       -0.6084900
 Cl        0.9253090       -0.4306590        2.3431220
 Cl        2.3039250        0.3549840       -2.0361490
 H       -1.3505190       -0.6258740       -0.8665600
 H       -0.0570070       -1.9744780       -0.7259060
 C        0.2428080        1.9358650        0.0553740
 N        0.9675720        3.0361640        0.5177460
 N       -1.0078960        2.4087470       -0.3229000
 C        2.2904850        3.0476000        1.1249190
 C        0.2384210        4.3234240        0.3355480
 C        3.4524860        3.2541180        0.3229810
 C        2.3916550        2.9645830        2.5490250
 C        4.7154210        3.2186950        0.9621750
 C        4.8572190        3.0409010        2.3538540
 H        5.6102450        3.3365380        0.3477240
 C        3.6779930        2.9503280        3.1295110
 H        3.7599710        2.8606720        4.2142150
 C       -1.1873340        3.8614730       -0.0171580
 C       -2.1332740        1.7166380       -0.9173570
 C       -3.1605830        1.1751560       -0.0900900
 C       -2.2355820        1.6758090       -2.3412250
 C       -4.2728970        0.5680590       -0.7230010
 C       -4.4024680        0.4976700       -2.1266010
 H       -5.0543980        0.1330510       -0.0967650
 C       -3.3728960        1.0651610       -2.9146840
 H       -3.4540490        1.0281190       -4.0026250
 C       -5.5923590       -0.1990760       -2.7749530
 C       -5.3489110       -1.7134380       -3.0453920
 H       -6.4812470       -0.0960920       -2.1312240
 H       -5.8358160        0.2925040       -3.7312090
 C       -6.5598780       -2.4141830       -3.7062490
 H       -4.4615630       -1.8279420       -3.6906740
 H       -5.1079860       -2.2167430       -2.0936570
 C       -6.3229150       -3.9169040       -3.9755150
 H       -6.8000090       -1.9070420       -4.6575950
 H       -7.4476210       -2.2952900       -3.0599330
 H       -7.2046690       -4.3801730       -4.4457980
 H       -6.1166620       -4.4625150       -3.0408570
 H       -5.4645820       -4.0714690       -4.6486680
 H        0.7000720        4.9092020       -0.4734290
 H        0.2737790        4.9208950        1.2552320
 H       -1.6005360        4.3868300       -0.8880260
 H       -1.8878000        3.9853670        0.8219400
 C        3.4056050        3.5730320       -1.1677690
 C        3.7491150        5.0578140       -1.4897870
 H        4.1230900        2.9277450       -1.6960840
 H        2.4245240        3.3287290       -1.5873680
 C        3.7023940        5.3651860       -3.0061150
 H        3.0503810        5.7280810       -0.9592670
 H        4.7533070        5.2976640       -1.1028730
 C        4.0464990        6.8325940       -3.3456020
 H        2.6981820        5.1247390       -3.3982280
 H        4.4033570        4.6944820       -3.5329320
 H        4.0042110        7.0097670       -4.4320030
 H        5.0608980        7.0938550       -3.0038070
 H        3.3427200        7.5314520       -2.8648980
 C        1.1702320        2.9465420        3.4533280
 H        1.4549130        2.6855470        4.4806530
 H        0.4244760        2.2169190        3.1241360
 H        0.6898420        3.9392880        3.4897430
 C        6.2318630        2.9306460        2.9999300
 C        6.7489190        1.4637770        3.0841280
 H        6.9628800        3.5288870        2.4313570
 H        6.2016380        3.3507790        4.0189070
 C        8.1432240        1.3488020        3.7447690
 H        6.0220890        0.8565080        3.6491630
 H        6.7858660        1.0354060        2.0683850
 C        8.6591250       -0.1050830        3.8296330
 H        8.1024160        1.7807240        4.7606800
 H        8.8678440        1.9600730        3.1776810
 H        9.6518130       -0.1482610        4.3054620
 H        8.7472770       -0.5559550        2.8283050
 H        7.9762560       -0.7364610        4.4201520
 C       -3.1003190        1.1908940        1.4354690
 C       -4.1548220        2.1157980        2.1105980
 H       -3.2631600        0.1638590        1.8035310
 H       -2.0986580        1.4749570        1.7771790
 C       -4.0650620        2.0959220        3.6556500
 H       -4.0280380        3.1510960        1.7501930
 H       -5.1680830        1.8082780        1.8030420
 C       -5.1092530        3.0044090        4.3416780
 H       -3.0512400        2.4033030        3.9676100
 H       -4.1924570        1.0590880        4.0129980
 H       -6.1360640        2.6990910        4.0836160
 H       -4.9875920        4.0565870        4.0372960
 H       -5.0134480        2.9605880        5.4379870
 C       -1.1518980        2.2463340       -3.2412380
 H       -0.9566090        3.3094640       -3.0327790
 H       -1.4426800        2.1651160       -4.2968290
 H       -0.2001740        1.7138310       -3.1111070
