97
Mol_000219_2D_DFT last geometry from G09 out file
 Ru        1.0398420        0.2406810        0.0822880
 C        0.1849100       -0.8339260       -1.1064470
 Cl        0.0566780       -0.3507160        2.2198820
 Cl        2.9464260        0.6972790       -1.3512360
 H       -0.5440110       -0.5583880       -1.8744640
 H        0.5159460       -1.8949280       -1.1013150
 C        0.0755740        1.9302130       -0.0587840
 N        0.6678230        3.0923560        0.4087280
 N       -1.1934480        2.2508590       -0.5152670
 C        1.9072540        3.1141980        1.1638480
 C       -0.1228900        4.3419260        0.0240380
 C        3.1338830        3.4968020        0.5722810
 C        1.8888620        2.7740560        2.5378700
 C        4.3098250        3.5398290        1.3433110
 C        4.3091770        3.1937980        2.7180940
 H        5.2467310        3.8245090        0.8605390
 C        3.0750540        2.8092460        3.2970190
 H        3.0357230        2.5290580        4.3514850
 C       -1.5938590        3.6864550       -0.0794610
 C       -2.1397670        1.2976160       -1.0593790
 C       -2.7015020        0.2816150       -0.2484210
 C       -2.5041240        1.3501300       -2.4253610
 C       -3.6171210       -0.6393060       -0.7918540
 C       -4.0113380       -0.5817220       -2.1525660
 H       -4.0217800       -1.4208750       -0.1455720
 C       -3.4300810        0.4294570       -2.9571010
 H       -3.6882480        0.4907840       -4.0163920
 C       -5.0321430       -1.5577720       -2.7224740
 C       -6.5028010       -1.0643470       -2.5836140
 H       -4.8216360       -1.7373790       -3.7895280
 H       -4.9398820       -2.5313840       -2.2140680
 C       -7.5341160       -2.0627620       -3.1615220
 H       -6.7243490       -0.8830810       -1.5181780
 H       -6.6078640       -0.0912880       -3.0930770
 C       -8.9949020       -1.5783650       -3.0265890
 H       -7.4243570       -3.0359680       -2.6512210
 H       -7.3075830       -2.2453970       -4.2269380
 H       -9.6978170       -2.3143970       -3.4477750
 H       -9.1505180       -0.6253700       -3.5572670
 H       -9.2676740       -1.4215290       -1.9707000
 C        0.4508490        4.9251360       -1.3226360
 C        0.6924810        4.0152660       -2.5540730
 H        1.4245180        5.3659210       -1.0726960
 H       -0.1834260        5.7743650       -1.6199880
 C        1.4023870        4.7865700       -3.6918590
 H       -0.2489600        3.6076510       -2.9439450
 H        1.3083560        3.1517940       -2.2736990
 H        2.3835490        5.1696410       -3.3676970
 H        1.5757940        4.1279810       -4.5569350
 H        0.8060280        5.6468850       -4.0382030
 C       -0.0570710        5.4489690        1.1427740
 C        1.1093140        6.4736020        1.1719170
 H       -0.0868350        4.9496120        2.1196530
 H       -0.9801180        6.0393920        1.0727790
 C        1.0123610        7.3850110        2.4180370
 H        1.0854980        7.1094430        0.2732490
 H        2.0825790        5.9677610        1.1800100
 H        1.0928790        6.8011260        3.3484650
 H        1.8234770        8.1297590        2.4208150
 H        0.0562810        7.9330790        2.4466180
 C       -2.5352820        4.3524130       -1.1277720
 C       -3.0390170        5.7930700       -0.8398910
 H       -3.4197200        3.7104820       -1.2338870
 H       -2.0487150        4.3563230       -2.1091460
 C       -4.0597360        6.2578280       -1.9048190
 H       -2.2004150        6.5046600       -0.8281960
 H       -3.5114330        5.8508640        0.1515960
 H       -4.9455310        5.6032580       -1.9244920
 H       -4.4054140        7.2826190       -1.6976740
 H       -3.6183000        6.2522560       -2.9142490
 C       -2.2891710        3.5836550        1.3372540
 C       -3.7710700        3.1283730        1.4244580
 H       -2.2489630        4.5675890        1.8192710
 H       -1.6801280        2.9121880        1.9593500
 C       -4.2250550        2.9887800        2.8969060
 H       -3.9288530        2.1723350        0.9154650
 H       -4.4254720        3.8594980        0.9254690
 H       -4.1121950        3.9371050        3.4474410
 H       -5.2847530        2.6942720        2.9543730
 H       -3.6359320        2.2232050        3.4260630
 H        3.1783810        3.7191460       -0.4900340
 H        0.9558650        2.4622420        3.0022300
 C        5.5986960        3.1787520        3.5276740
 C        6.3220750        1.7994680        3.4937100
 H        6.2900690        3.9477080        3.1454930
 H        5.3848860        3.4373620        4.5778980
 C        7.6349830        1.7823180        4.3120250
 H        5.6383170        1.0240460        3.8781290
 H        6.5366600        1.5300850        2.4459600
 C        8.3527520        0.4144960        4.2818450
 H        7.4162610        2.0560220        5.3596470
 H        8.3169470        2.5602980        3.9248380
 H        9.2817900        0.4394210        4.8733530
 H        8.6181410        0.1261900        3.2522570
 H        7.7126830       -0.3807720        4.6959950
 H       -2.3946740        0.1938920        0.7907740
 H       -2.0488170        2.0905200       -3.0794090
