77
M00000553_2D_DFT last geometry from G09 out file
 Ru       -0.2097140       -0.0706170        0.2911890
 C       -1.7480360       -0.7237380       -0.4180810
 Cl       -0.7806130       -0.1673510        2.6326230
 Cl        1.3314230       -0.6140190       -1.4869140
 H       -2.5845870       -0.1843310       -0.8685850
 H       -1.8436320       -1.8301220       -0.3687570
 C       -0.3258180        1.8639720        0.0160510
 N        0.6968140        2.7150290        0.4214170
 N       -1.2980110        2.6582020       -0.5683990
 C        0.4823750        4.1249700       -0.0277800
 C        1.8365290        2.3960070        1.2558780
 C       -0.9993090        4.1222120       -0.4313850
 H        0.6833200        4.8135460        0.7981270
 H       -1.1702250        4.6220030       -1.3893100
 C        1.7233760        2.4222130        2.6901030
 C        3.0915180        2.1147050        0.6472830
 C        2.8407500        2.0358040        3.4655560
 C        4.0766920        1.6715720        2.8843640
 H        2.7480330        2.0275060        4.5484200
 C        4.1775680        1.7440740        1.4822880
 H        5.1282890        1.4955160        1.0064560
 C       -2.5067750        2.2811140       -1.2570880
 C       -2.4742380        2.0110820       -2.6631030
 C       -3.7380080        2.2204610       -0.5460830
 C       -3.6710390        1.6606970       -3.3272590
 C       -4.9117040        1.6001660       -2.6487140
 H       -3.6401840        1.4599580       -4.3968960
 C       -4.9121330        1.8819350       -1.2673150
 H       -5.8548610        1.8265630       -0.7194030
 C       -1.2039850        2.1552580       -3.4851900
 C       -0.8214520        1.0364880       -4.4456780
 O       -0.4682130        3.1715270       -3.3589080
 H       -1.6808480        0.5842130       -4.9560580
 H       -0.0987700        1.4101060       -5.1813300
 H       -0.3339150        0.2402840       -3.8594710
 C       -3.8446680        2.4757240        0.9556600
 C       -4.6226300        3.7696250        1.3186210
 H       -2.8507780        2.5141670        1.4118030
 H       -4.3604760        1.6188970        1.4201060
 H       -4.1379750        4.6642570        0.9005640
 H       -4.6594530        3.8879150        2.4121560
 H       -5.6578300        3.7450850        0.9465290
 H        1.1398710        4.3504090       -0.8791150
 C       -6.2150250        1.2404670       -3.3752970
 C       -6.1744750       -0.1892190       -3.9837740
 C       -6.5954480        2.3007040       -4.4469370
 H       -7.0184140        1.2451600       -2.6194990
 H       -5.4160930       -0.2739220       -4.7765610
 H       -7.1494480       -0.4429970       -4.4276040
 H       -5.9445900       -0.9422880       -3.2150610
 H       -5.8544140        2.3423120       -5.2592890
 H       -6.6662880        3.3054660       -4.0041260
 H       -7.5704270        2.0567370       -4.8963570
 H       -1.6372300        4.5584940        0.3487100
 C        0.4966680        2.9360870        3.4185640
 C        0.2715150        2.5350040        4.8772700
 O       -0.3074430        3.7415500        2.8712400
 H       -0.7575470        2.7961830        5.1485510
 H        0.4295310        1.4619900        5.0366300
 H        0.9502080        3.0933970        5.5430060
 C        3.3458850        2.2289880       -0.8526110
 C        4.2164680        3.4607120       -1.2260720
 H        2.4029200        2.2676640       -1.4048600
 H        3.8570420        1.3182050       -1.1972150
 H        3.7392610        4.4050010       -0.9234010
 H        4.3678780        3.4935370       -2.3160370
 H        5.2075410        3.4210510       -0.7496810
 C        5.2703040        1.2180960        3.7352170
 C        4.9712700       -0.1115200        4.4836610
 C        5.7537030        2.3235420        4.7149670
 H        6.1040060        1.0163620        3.0417230
 H        4.1637550        0.0104330        5.2211020
 H        5.8673210       -0.4580680        5.0215070
 H        4.6670530       -0.9017460        3.7812830
 H        4.9890210        2.5632680        5.4691110
 H        6.0005720        3.2516300        4.1775850
 H        6.6557410        1.9901360        5.2509820
