71
M00000555_2D_DFT last geometry from G09 out file
 Ru       -0.7873430       -0.1241950        1.0826610
 C        0.6692470       -0.3977550        2.1321470
 Cl       -0.0340530       -0.9220530       -1.0638990
 Cl       -2.4458430       -0.0582820        2.8530200
 H        1.3587420        0.3405300        2.5507200
 H        0.8461610       -1.4554360        2.4226680
 C       -0.7105510        1.7798600        0.7214360
 N        0.2288690        2.7454460        1.0481890
 N       -1.7640560        2.4224050        0.0652220
 C       -0.1763160        4.1008500        0.5542210
 C        1.6306270        2.5225310        1.2994830
 C       -1.6457430        3.9291180        0.0802150
 H        0.4860480        4.3932890       -0.2744650
 H       -0.0743900        4.8325230        1.3559250
 H       -1.7417460        4.2926490       -0.9492760
 C        2.3057450        2.9321320        2.4860130
 C        2.4119730        1.9437190        0.2706150
 C        3.7011810        2.7673200        2.6078820
 C        4.4880770        2.1791450        1.5716450
 H        4.1722910        3.0859390        3.5302980
 C        3.7939740        1.7627450        0.3928030
 H        4.3249850        1.2979410       -0.4336300
 C       -2.7010750        1.6995870       -0.7717830
 C       -2.5954710        1.6313160       -2.1965960
 C       -3.7753020        1.0032710       -0.1752750
 C       -3.5346000        0.8974340       -2.9479120
 C       -4.6022030        0.1730680       -2.3372880
 H       -3.4098440        0.8653990       -4.0241530
 C       -4.6965340        0.2526710       -0.9154270
 H       -5.4805290       -0.2707420       -0.3745380
 C       -1.5424610        2.3557680       -3.0049070
 F       -0.2766840        2.4783680       -2.3937880
 F       -1.9379600        3.7102220       -3.3095200
 F       -1.2996310        1.7646550       -4.2638910
 H       -3.8762570        1.0407470        0.9052620
 C       -2.7275860        4.7221400        0.9247500
 C       -4.1407560        4.5448150        0.2926970
 C       -2.7704700        4.2890920        2.4144260
 C       -2.3687690        6.2394980        0.8219050
 H       -4.5272540        3.5288900        0.4203450
 H       -4.1384320        4.7771260       -0.7836950
 H       -4.8506310        5.2307330        0.7788340
 H       -1.8251300        4.4884160        2.9353360
 H       -2.9910010        3.2196610        2.5218730
 H       -3.5577810        4.8494740        2.9410680
 H       -2.3129830        6.5716010       -0.2272670
 H       -1.4163810        6.4885390        1.3101130
 H       -3.1491090        6.8359540        1.3168840
 N       -5.5031410       -0.5709840       -3.0988630
 C       -6.5709290       -1.3360640       -2.4363490
 C       -5.3488230       -0.6643070       -4.5590660
 H       -6.1648290       -2.0970570       -1.7474510
 H       -7.1712460       -1.8544350       -3.1921820
 H       -7.2479130       -0.6796640       -1.8636360
 H       -5.4213810        0.3251940       -5.0419050
 H       -6.1465130       -1.2924920       -4.9706730
 H       -4.3831300       -1.1172510       -4.8431730
 C        1.5798880        3.5484080        3.6605980
 F        2.3761500        3.6207120        4.8295180
 F        0.4096180        2.8578090        4.0380160
 F        1.1708500        4.9012000        3.4154130
 H        1.9107460        1.6115700       -0.6360950
 N        5.8670890        2.0192160        1.7097470
 C        6.5508100        2.4574600        2.9365130
 C        6.6484270        1.3869580        0.6349290
 H        7.6251960        2.2640210        2.8446050
 H        6.1873380        1.9159720        3.8272020
 H        6.4200510        3.5386580        3.1138510
 H        6.3088520        0.3566610        0.4327020
 H        7.7023520        1.3388880        0.9301330
 H        6.5891910        1.9598040       -0.3063800
