91
M00000554_2D_DFT last geometry from G09 out file
 Ru        0.1962510        1.1094440        0.1044090
 C       -1.2509610        0.1551310       -0.4315360
 Cl       -0.1298290        0.9677380        2.4940260
 Cl        1.4830660        0.4673100       -1.8600590
 H       -2.1127720        0.4474930       -1.0317070
 H       -1.1843960       -0.9217580       -0.1638310
 C       -0.1534630        3.0239970       -0.2302050
 N        0.7582620        3.9943920        0.2125640
 N       -1.1627220        3.6651990       -0.9370390
 C        0.4320440        5.4074080       -0.3123660
 C        1.7125520        3.7133410        1.3069760
 C       -0.9256160        5.1826500       -1.1133040
 H        0.2282980        6.0398470        0.5574290
 H       -0.7211450        5.3399800       -2.1785910
 C        1.3897920        4.0673470        2.6653310
 C        2.9841190        3.0808610        1.0608820
 C        2.2826840        3.8017700        3.7252450
 C        3.4932520        3.1431760        3.4826790
 H        2.0096010        4.0754030        4.7406410
 C        3.8209660        2.7896850        2.1707880
 H        4.7654350        2.2850130        1.9920240
 C       -2.2394050        2.9570410       -1.6221360
 C       -2.2098600        2.7475240       -3.0417990
 C       -3.3873210        2.4992680       -0.8856300
 C       -3.3116220        2.1667060       -3.7125970
 C       -4.4495420        1.7709000       -2.9965000
 H       -3.2689780        2.0201790       -4.7892130
 C       -4.4705590        1.9316760       -1.6042120
 H       -5.3538490        1.6167490       -1.0513200
 C       -1.0778360        3.1588270       -3.9600800
 F        0.2019230        3.1261640       -3.4049290
 F       -1.2528010        4.5066140       -4.4526230
 F       -1.0136640        2.3631610       -5.1270920
 C       -3.5494940        2.6329250        0.6299340
 C       -4.0750040        1.3817530        1.3904900
 H       -2.6053710        2.9280290        1.0875740
 H       -4.2676700        3.4501210        0.8154620
 C       -4.2821080        1.6712690        2.8977030
 H       -5.0314130        1.0334510        0.9677900
 H       -3.3563170        0.5566950        1.2844800
 C       -4.7742040        0.4380500        3.6861730
 H       -5.0098870        2.4945650        3.0157510
 H       -3.3329950        2.0222960        3.3321640
 H       -4.9176690        0.6826070        4.7503160
 H       -4.0430480       -0.3836670        3.6297720
 H       -5.7352020        0.0641920        3.2961040
 C        1.6535720        6.1132680       -1.0908050
 C        2.8065460        6.3970950       -0.0729940
 C        2.1550160        5.3021540       -2.3185080
 C        1.2916100        7.5254370       -1.6467650
 H        3.5902900        6.9868880       -0.5706480
 H        3.2806260        5.5020450        0.3276200
 H        2.4409000        6.9908330        0.7786390
 H        1.4902220        5.4377420       -3.1807580
 H        2.2275060        4.2332580       -2.1299410
 H        3.1492160        5.6652250       -2.6191310
 H        2.1876210        7.9257830       -2.1441540
 H        1.0154340        8.2370740       -0.8584480
 H        0.4989120        7.4967820       -2.3992720
 H       -5.3023980        1.3373110       -3.5190330
 C       -2.1813270        6.1519620       -0.7898630
 C       -2.6840210        6.1255070        0.6774280
 C       -1.8226370        7.6421850       -1.0821050
 C       -3.3762020        5.8470740       -1.7525830
 H       -3.6096780        6.7171350        0.7450670
 H       -1.9623550        6.5791080        1.3656220
 H       -2.9031090        5.1234220        1.0369940
 H       -1.5559200        7.8154190       -2.1322390
 H       -1.0211280        8.0184840       -0.4409010
 H       -2.7135770        8.2508420       -0.8698060
 H       -3.0531540        5.7871590       -2.8006720
 H       -4.1023200        6.6702680       -1.6824400
 H       -3.9128710        4.9299760       -1.5039270
 C        0.1165950        4.7515160        3.1037170
 F       -1.0528360        4.3035940        2.4730230
 F        0.1650970        6.1785390        2.8783760
 F       -0.1389070        4.6326760        4.4868910
 C        3.5612570        2.8078630       -0.3329090
 C        4.6818820        1.7428430       -0.4544460
 H        2.7663520        2.5332010       -1.0283040
 H        3.9780810        3.7583110       -0.7008020
 C        5.1887700        1.6022310       -1.9116360
 H        5.5491280        2.0071910        0.1731410
 H        4.3098420        0.7673530       -0.1034150
 C        6.2998550        0.5399740       -2.0622120
 H        5.5713140        2.5791240       -2.2596370
 H        4.3452680        1.3409280       -2.5678660
 H        5.9370040       -0.4566760       -1.7647460
 H        7.1767960        0.7793670       -1.4383720
 H        6.6414730        0.4716380       -3.1070640
 H        4.1681350        2.9108700        4.3065480
