97
M00000445_2D_DFT last geometry from G09 out file
 Ru        0.1448170       -0.2895080       -1.1265700
 C       -1.3737690       -0.8820920       -1.9198170
 Cl       -0.1470480       -1.2540380        1.0687420
 Cl        1.3666670        0.0628740       -3.1994320
 H       -2.2754900       -0.3434600       -2.2129590
 H       -1.3350360       -1.9627990       -2.1815660
 C       -0.0773290        1.5978990       -0.6827810
 N        0.9767640        2.2775460       -0.0558670
 N       -1.0745310        2.5128500       -0.9730860
 C        0.7856540        3.7931620       -0.0978720
 C        1.8453310        1.6621270        0.9531780
 C       -0.6937470        3.9544960       -0.6232990
 H        0.8491220        4.1541570        0.9360210
 H       -0.6659010        4.4965780       -1.5757030
 C        1.4029580        1.7040100        2.3014060
 C        3.1201470        1.0499610        0.7279190
 C        2.1211250        1.2388280        3.4008750
 C        3.3925990        0.6642220        3.1841590
 H        1.6754500        1.3030740        4.3927090
 C        3.8483610        0.5804720        1.8527240
 H        4.8203010        0.1232020        1.6727000
 C       -2.2111110        2.2350390       -1.8283810
 C       -2.1645990        2.6416640       -3.1825750
 C       -3.4147150        1.6011300       -1.3786390
 C       -3.2128110        2.4819260       -4.0930790
 C       -4.4107570        1.8781160       -3.6517520
 H       -3.0787510        2.8153540       -5.1214360
 C       -4.4762930        1.4485430       -2.3052980
 H       -5.3915820        0.9665840       -1.9661800
 F       -0.9928980        3.2564670       -3.6641880
 C       -3.5865810        1.1073640        0.0608980
 C       -4.4320660       -0.1733840        0.2603050
 H       -4.0584410        1.9150070        0.6456280
 H       -2.6029490        0.9373750        0.5086440
 H       -5.4891510       -0.0352410       -0.0104000
 H       -4.4016660       -0.4589840        1.3224060
 H       -4.0348610       -1.0190440       -0.3179900
 C        1.9206260        4.5598670       -0.9322730
 C        3.2532810        4.5307920       -0.1226460
 C        2.1317230        3.9586420       -2.3488720
 C        1.5836010        6.0711560       -1.1254030
 H        4.0136070        5.1347570       -0.6401560
 H        3.6577480        3.5251940       -0.0053000
 H        3.1187890        4.9609800        0.8826850
 H        1.2633490        4.1275920       -2.9970570
 H        2.3170240        2.8837880       -2.3295920
 H        2.9970270        4.4434930       -2.8258890
 H        1.5077220        6.6115440       -0.1735610
 H        0.6619290        6.2347690       -1.6970520
 H        2.4003150        6.5333960       -1.6995310
 C       -5.5975400        1.7172030       -4.5920880
 C       -6.5317120        2.9629480       -4.6246590
 H       -5.2376070        1.5210380       -5.6151320
 H       -6.1916220        0.8391160       -4.2919010
 C       -7.7361380        2.7898940       -5.5805710
 H       -6.8983570        3.1674180       -3.6044300
 H       -5.9463500        3.8473430       -4.9280850
 C       -8.6664900        4.0225690       -5.6180220
 H       -8.3188260        1.9024960       -5.2762720
 H       -7.3656690        2.5817890       -6.5998850
 H       -9.5099910        3.8618270       -6.3077210
 H       -8.1256300        4.9213260       -5.9549510
 H       -9.0851980        4.2378470       -4.6219250
 C       -1.7375470        4.7557220        0.2962000
 C       -2.0701690        4.0621870        1.6455600
 C       -1.1824990        6.1716460        0.6480780
 C       -3.0562760        5.0149370       -0.5015870
 H       -1.2551410        4.1744640        2.3687250
 H       -2.2631580        2.9943740        1.5361560
 H       -2.9647970        4.5304210        2.0840290
 H       -1.0400240        6.8007520       -0.2394330
 H       -0.2382320        6.1302290        1.2039230
 H       -1.9143070        6.6770950        1.2956360
 H       -3.6716990        5.7455130        0.0445460
 H       -3.6619680        4.1154270       -0.6342490
 H       -2.8522220        5.4379400       -1.4972520
 F        0.1308240        2.2433470        2.5683290
 C        3.7706780        0.8886500       -0.6466440
 C        4.3329220       -0.5245600       -0.9493460
 H        4.6043400        1.6081670       -0.7265070
 H        3.0624870        1.1464370       -1.4346700
 H        4.6852470       -0.5579950       -1.9905740
 H        3.5610530       -1.2975390       -0.8350410
 H        5.1805210       -0.7901670       -0.3012550
 C        4.2374910        0.1667140        4.3484950
 C        5.0932510        1.2838010        5.0151620
 H        3.5841590       -0.2808080        5.1152640
 H        4.9098260       -0.6337450        4.0009460
 C        5.9464410        0.7667920        6.1979760
 H        5.7533590        1.7359160        4.2554740
 H        4.4275660        2.0896700        5.3681110
 C        6.7972610        1.8702530        6.8651950
 H        6.6106110       -0.0408380        5.8427900
 H        5.2828520        0.3108700        6.9539050
 H        7.3893250        1.4643590        7.7006290
 H        6.1624490        2.6767760        7.2658760
 H        7.4991530        2.3229320        6.1465950
