89
M00000449_2D_DFT last geometry from G09 out file
 Ru        0.3242400        0.3940270       -0.7290160
 C       -1.2078790       -0.4689660       -1.1716100
 Cl        0.5929580       -0.4243920        1.5268820
 Cl        1.1341570        0.6585680       -3.0212280
 H       -2.2177220       -0.0881510       -1.3228470
 H       -1.0616480       -1.5592880       -1.3384510
 C       -0.0722010        2.2891050       -0.3976940
 N        0.9420740        3.1218300        0.1055240
 N       -1.1518530        3.0707640       -0.7752320
 C        0.6383980        4.6046050       -0.1600340
 C        1.9805970        2.7422910        1.0935190
 C       -0.8418000        4.5866440       -0.7223820
 H        0.6574900        5.1209400        0.8094310
 H       -0.8182670        4.8923430       -1.7705600
 C        1.7590960        3.1016850        2.4752090
 C        3.2412280        2.1505990        0.7394410
 C        2.8104240        3.0023300        3.4179740
 C        4.0586040        2.4765430        3.0574730
 H        2.6370110        3.2897090        4.4523550
 C        4.2394850        2.0313340        1.7454880
 H        5.1933620        1.5833930        1.4732810
 C       -2.3664800        2.5120580       -1.3801300
 C       -2.5412010        2.4964680       -2.8114230
 C       -3.3888310        1.9329730       -0.5451480
 C       -3.7154290        1.9301610       -3.3699250
 C       -4.7323120        1.4095720       -2.5569590
 H       -3.8400030        1.9136990       -4.4509530
 C       -4.5541680        1.4116980       -1.1678640
 H       -5.3345330        0.9886200       -0.5375030
 C       -1.6044570        3.0932050       -3.8490680
 C       -1.3552920        2.3087790       -5.1377930
 O       -1.1017000        4.2414440       -3.7200330
 H       -1.3645050        1.2257680       -4.9791740
 H       -2.1191110        2.5677950       -5.8901660
 H       -0.3812580        2.6092010       -5.5402090
 C       -3.3412880        1.8238000        0.9925890
 C       -3.3246260        0.3504590        1.4982780
 C       -4.5443160        2.5585540        1.6608520
 H       -2.4168540        2.2769230        1.3488210
 H       -2.4181780       -0.1773380        1.1876960
 H       -4.2050130       -0.2153600        1.1562310
 H       -3.3337350        0.3504960        2.5984220
 H       -4.6727930        3.5848820        1.2968620
 H       -4.3812980        2.6038230        2.7480700
 H       -5.4909100        2.0228440        1.4945740
 C        1.7534720        5.3189150       -1.0816810
 C        3.0289660        5.5735180       -0.2173000
 C        2.0833960        4.4946430       -2.3560490
 C        1.3357720        6.7302840       -1.5998830
 H        3.5002630        4.6609170        0.1483620
 H        2.7897680        6.2005850        0.6567630
 H        3.7760210        6.1180520       -0.8140460
 H        2.9624280        4.9294760       -2.8552340
 H        1.2538090        4.5255500       -3.0706320
 H        2.2973040        3.4490280       -2.1468680
 H        2.1538420        7.1068030       -2.2322980
 H        1.1926870        7.4587570       -0.7933630
 H        0.4384360        6.7045000       -2.2262570
 H       -5.6399450        0.9994660       -3.0015970
 C       -1.9296880        5.5563930       -0.0406650
 C       -2.1653750        5.3377060        1.4751630
 C       -1.4930190        7.0495300       -0.1801070
 C       -3.2832810        5.4703260       -0.8170480
 H       -3.0213420        5.9490400        1.7999380
 H       -1.2977250        5.6682400        2.0609530
 H       -2.3658180        4.3028510        1.7381190
 H       -0.5596370        7.2663360        0.3505590
 H       -2.2743590        7.6754690        0.2762100
 H       -1.3895780        7.3650750       -1.2247410
 H       -3.8174470        4.5333060       -0.6561900
 H       -3.1291000        5.5936800       -1.8980430
 H       -3.9429850        6.2846000       -0.4810340
 C        0.4116010        3.4070730        3.0819910
 C        0.3342530        4.3202500        4.3160100
 O       -0.6373860        2.8639330        2.6559980
 H        1.0588930        5.1448050        4.2868680
 H       -0.6834920        4.7205110        4.3881700
 H        0.5170930        3.7368530        5.2326450
 C        3.6400950        1.5760410       -0.6327620
 C        3.9381660        0.0472000       -0.5369430
 C        4.8696580        2.2867030       -1.2705530
 H        2.8065390        1.6947670       -1.3287930
 H        4.8740950       -0.1501290        0.0065390
 H        4.0430250       -0.3647910       -1.5505420
 H        3.1365830       -0.4990230       -0.0253180
 H        4.7198290        3.3656900       -1.3833350
 H        5.0500610        1.8662810       -2.2713050
 H        5.7830190        2.1306150       -0.6775000
 H        4.8596420        2.3898380        3.7923270
