87
M00000444_2D_DFT last geometry from G09 out file
 Ru        0.1974480       -0.1894700        0.0807430
 C       -1.3334840       -0.9232170       -0.5642870
 Cl       -0.2059640       -0.5460920        2.4368540
 Cl        1.5942500       -0.5430060       -1.8640310
 H       -2.2230650       -0.4246710       -0.9553000
 H       -1.3491580       -2.0345600       -0.5557360
 C       -0.0686800        1.7381930       -0.0931500
 N        0.9153090        2.6365700        0.3338510
 N       -1.1071730        2.4804160       -0.6448950
 C        0.5047900        4.0798480        0.1399400
 C        2.0133190        2.3295750        1.2559850
 C       -0.7606120        3.9530120       -0.7586030
 H        0.2173220        4.4677930        1.1249030
 H       -0.4814180        4.1295580       -1.8048550
 C        3.3118280        2.0401390        0.7422170
 C        1.7771350        2.4256200        2.6612100
 C        4.3641610        1.7458780        1.6605020
 C        4.1200130        1.7616240        3.0633280
 C        2.8446160        2.1542560        3.5617100
 C       -2.2827260        2.0110750       -1.3650480
 C       -3.4917750        1.7800290       -0.6458010
 C       -2.2194110        1.8782480       -2.7833040
 C       -4.6692010        1.4352820       -1.3734140
 C       -4.6230260        1.3062030       -2.7925360
 C       -3.4066570        1.5439850       -3.4965070
 C        1.5738300        5.0311530       -0.4063740
 C        2.1113630        6.0152970        0.4578310
 C        2.0228680        5.0036260       -1.7499060
 C        3.0672440        6.9462140        0.0006810
 H        1.7806640        6.0568230        1.4974300
 C        3.5028040        6.9093030       -1.3403690
 H        3.4664780        7.6955120        0.6863870
 C        2.9760100        5.9318400       -2.2129590
 H        4.2402870        7.6287570       -1.7004980
 H        3.3103430        5.8902340       -3.2511870
 H        1.6477960        4.2502390       -2.4425210
 C       -1.8777360        4.9475940       -0.4311270
 C       -2.4198960        5.7293590       -1.4797050
 C       -2.3650970        5.1609850        0.8820480
 C       -3.4180600        6.6943030       -1.2317210
 H       -2.0583520        5.5861930       -2.4997630
 C       -3.8937560        6.8963510        0.0806390
 H       -3.8185120        7.2855600       -2.0570060
 C       -3.3621510        6.1233900        1.1360990
 H       -4.6639090        7.6437800        0.2790610
 H       -3.7232050        6.2708580        2.1556310
 H       -1.9803450        4.5736400        1.7147260
 C        3.6032430        2.0558270       -0.7487110
 H        4.0552390        1.1129960       -1.0804260
 H        4.2988160        2.8719850       -0.9987480
 H        2.6972010        2.1918270       -1.3357400
 C        0.4123780        2.7936280        3.2263610
 H       -0.3764210        2.7181050        2.4774030
 H        0.4098110        3.8179750        3.6379590
 H        0.1297440        2.1126950        4.0371070
 C        5.7605890        1.4150020        1.1404110
 H        5.9085980        1.7485820        0.1095360
 H        5.9481900        0.3273720        1.1564200
 H        6.5424760        1.8891270        1.7493380
 C        5.2208870        1.3525230        4.0382330
 H        5.9638150        0.7017300        3.5654870
 H        4.8120250        0.8017570        4.8948600
 H        5.7612280        2.2274950        4.4404660
 C        2.6073730        2.2607570        5.0649120
 H        1.8872560        3.0510230        5.3096560
 H        3.5298490        2.4872560        5.6116970
 H        2.2026410        1.3189050        5.4748250
 C       -3.5261890        1.8356910        0.8748250
 H       -2.5308780        1.9752670        1.2965360
 H       -3.9221550        0.8990020        1.2937460
 H       -4.1671010        2.6538760        1.2353520
 C       -0.9041860        2.0395400       -3.5347700
 H       -0.7487110        1.2056730       -4.2321830
 H       -0.0449960        2.0349690       -2.8625010
 H       -0.8807840        2.9679460       -4.1302550
 C       -5.9861500        1.2071970       -0.6360110
 H       -6.8181430        1.7258060       -1.1332190
 H       -5.9526360        1.5685300        0.3953590
 H       -6.2502600        0.1365110       -0.5951220
 C       -5.8725870        0.8985020       -3.5677760
 H       -6.5909350        0.3605600       -2.9405980
 H       -5.6278360        0.2426040       -4.4128650
 H       -6.3966620        1.7776110       -3.9822410
 C       -3.3786340        1.4328530       -5.0181140
 H       -3.2737990        0.3842450       -5.3472730
 H       -2.5459550        1.9911830       -5.4580330
 H       -4.3016530        1.8210680       -5.4681770
