95
Mol_000123_2D_DFT last geometry from G09 out file
 Ru        0.1943830       -0.0318810       -0.4397870
 C       -1.2212920       -0.9694390       -1.0791000
 Cl        0.1241560       -0.7889000        1.8506220
 Cl        1.2900770        0.3774930       -2.5637260
 H       -2.2435910       -0.6559510       -1.2962740
 H       -0.9817360       -2.0353100       -1.2863740
 C       -0.3680170        1.8188780       -0.2157480
 N        0.5562910        2.7694030        0.2266540
 N       -1.5437340        2.4752230       -0.5247340
 C        1.6174420        2.4562440        1.1834800
 C        0.0946600        4.2065690       -0.1527370
 C        3.0032720        2.3071030        0.8431150
 C        1.2072350        2.3188490        2.5366790
 C        3.9066830        2.0560870        1.9059810
 C        3.4710720        1.9537400        3.2360890
 H        4.9670740        1.9437140        1.7049100
 C        2.1118860        2.0722890        3.5753750
 H        1.7833170        1.9608640        4.6052030
 C       -1.5056020        3.9813820       -0.1090280
 C       -2.6342700        1.8876210       -1.2774190
 C       -3.7713510        1.2796950       -0.6515060
 C       -2.5440260        1.9443230       -2.6921190
 C       -4.8263970        0.8547610       -1.4959650
 C       -4.7352420        0.9749170       -2.8932920
 H       -5.7253110        0.4162640       -1.0717830
 C       -3.5834270        1.4920870       -3.5170270
 H       -3.5130980        1.5366950       -4.6009120
 N       -5.8808390        0.5237130       -3.7357000
 O       -5.7723400        0.6405810       -5.0119750
 O       -6.9184140        0.0457780       -3.1433930
 C        0.6844180        4.4615740       -1.5959370
 C        0.5898590        5.8536720       -2.2887780
 H        0.2864090        3.6968690       -2.2769330
 H        1.7504040        4.2340560       -1.5064020
 C        1.6131410        5.9686610       -3.4448690
 H        0.7721380        6.6687090       -1.5737000
 H       -0.4106150        6.0284400       -2.7030290
 H        1.4667450        5.1711870       -4.1903770
 H        1.5111210        6.9342090       -3.9644000
 H        2.6491700        5.8936520       -3.0787930
 C        0.5633740        5.2916640        0.8636200
 C        2.0380090        5.7781220        0.8734370
 H        0.3263090        4.9526590        1.8779520
 H       -0.0651720        6.1751270        0.6808380
 C        2.2357380        6.9298050        1.8874060
 H        2.3470340        6.1294680       -0.1196690
 H        2.7148410        4.9598120        1.1422120
 H        1.9826510        6.6140640        2.9119480
 H        3.2838530        7.2660780        1.8947960
 H        1.6081860        7.8012260        1.6397070
 C       -2.2590980        4.9050810       -1.1181610
 C       -3.8109180        4.9839790       -1.1107300
 H       -1.9465080        4.6475780       -2.1355450
 H       -1.8874700        5.9234060       -0.9352610
 C       -4.3198860        5.9923040       -2.1682730
 H       -4.1854640        5.2946670       -0.1264150
 H       -4.2580860        4.0053480       -1.3187960
 H       -4.0173270        5.6985090       -3.1857790
 H       -5.4190020        6.0501780       -2.1535620
 H       -3.9305770        7.0062820       -1.9821840
 C       -2.1686350        4.0527480        1.3197620
 C       -2.4322830        5.4131700        2.0334810
 H       -1.6067810        3.4031210        2.0036400
 H       -3.1467740        3.5770410        1.1996760
 C       -3.4939110        5.2620890        3.1496490
 H       -2.7744410        6.1771750        1.3212290
 H       -1.5154570        5.8072370        2.4876570
 H       -3.1903960        4.5085810        3.8937980
 H       -3.6389550        6.2145220        3.6826330
 H       -4.4707040        4.9553000        2.7433590
 C        3.5668590        2.4543020       -0.5695890
 C        4.7149900        1.4825610       -0.9567180
 H        3.9465800        3.4861340       -0.6825120
 H        2.7631010        2.3280280       -1.2992120
 C        5.1979170        1.7103650       -2.4062350
 H        4.3641600        0.4444160       -0.8481610
 H        5.5762520        1.6014320       -0.2806870
 H        5.5807540        2.7347740       -2.5468080
 H        6.0128190        1.0138090       -2.6564330
 H        4.3841180        1.5462680       -3.1270030
 H        0.1491840        2.3846730        2.7703750
 N        4.4739280        1.7109260        4.3119930
 O        4.0509450        1.6413960        5.5252680
 O        5.7103720        1.5899360        3.9759770
 C       -3.8899320        1.0440960        0.8543260
 C       -4.3403470       -0.3835120        1.2782270
 H       -4.6158830        1.7615950        1.2759520
 H       -2.9268230        1.2485070        1.3315280
 C       -4.3534450       -0.5478760        2.8139020
 H       -3.6573820       -1.1298020        0.8453360
 H       -5.3458870       -0.6041310        0.8860900
 H       -3.3466330       -0.4087990        3.2357590
 H       -5.0319380        0.1765240        3.2932110
 H       -4.6929480       -1.5571700        3.0920690
 H       -1.6343620        2.3340860       -3.1425710
