95
Mol_000125_2D_DFT last geometry from G09 out file
 Ru        0.0349110       -0.1455420        0.1571950
 C       -0.9725950       -0.9351760       -1.1284010
 Cl       -1.4185470       -0.2679020        2.0906170
 Cl        2.1577910       -0.6049540       -0.9300740
 H       -1.4131100       -0.4860950       -2.0218920
 H       -1.0671780       -2.0386460       -1.0347860
 C       -0.2311110        1.7786710       -0.1180850
 N        0.5719200        2.7038100        0.5384610
 N       -1.1652120        2.4800780       -0.8608030
 C        1.6537560        2.3102800        1.4319410
 C        0.4010820        4.1206950       -0.0707600
 C        2.9097470        2.0069440        0.8630350
 C        1.5169610        2.1717710        2.8568440
 C        4.0206200        1.6273370        1.6387190
 C        3.9221980        1.4949240        3.0400460
 H        4.9492420        1.4056840        1.1191320
 C        2.6489300        1.7558620        3.6035250
 H        2.5267420        1.6436580        4.6774660
 C       -1.1458430        3.9986400       -0.5066960
 C       -2.2752930        1.8620220       -1.5519570
 C       -3.3422750        1.3608880       -0.7749190
 C       -2.3722320        1.7579600       -2.9797410
 C       -4.4887170        0.7890410       -1.3584680
 C       -4.6333430        0.7044600       -2.7627040
 H       -5.2620800        0.4100390       -0.6946230
 C       -3.5553180        1.2034070       -3.5348220
 H       -3.6205250        1.1350180       -4.6174500
 C       -5.8807220        0.0922290       -3.4577220
 C       -5.4465290       -1.1401420       -4.3159790
 C       -6.9511340       -0.3870910       -2.4370580
 C       -6.5418080        1.1650600       -4.3825370
 H       -4.7259270       -0.8665690       -5.0994170
 H       -6.3228510       -1.5852570       -4.8111000
 H       -4.9816660       -1.9134150       -3.6863730
 H       -7.3227840        0.4383540       -1.8120250
 H       -6.5646440       -1.1758240       -1.7750490
 H       -7.8131480       -0.8048880       -2.9770250
 H       -6.8632550        2.0419250       -3.8007180
 H       -7.4280740        0.7427060       -4.8798340
 H       -5.8564380        1.5144160       -5.1675100
 C        1.4223030        4.1946610       -1.2750780
 C        1.6393240        5.5189100       -2.0579070
 H        2.3941040        3.9437910       -0.8351480
 H        1.1911190        3.3923640       -1.9853400
 H        0.8699880        5.7067660       -2.8147810
 H        2.5999490        5.4501910       -2.5934540
 H        1.6932140        6.4028920       -1.4092320
 C        0.6474970        5.2660610        0.9562100
 C        2.0977060        5.6220930        1.3710710
 H        0.1958830        6.1723270        0.5267600
 H        0.0925800        5.0309000        1.8650990
 H        2.7417110        5.8975660        0.5267040
 H        2.5906340        4.8122480        1.9192610
 H        2.0570230        6.4920790        2.0466690
 C       -1.4925290        4.9113610       -1.7249270
 C       -2.9731530        5.1179780       -2.1367980
 H       -1.0855520        5.9054830       -1.4928140
 H       -0.9362660        4.5546320       -2.5960380
 H       -3.4847300        4.1871460       -2.4009850
 H       -2.9979680        5.7705280       -3.0251900
 H       -3.5645300        5.6134300       -1.3581680
 C       -2.1981790        4.1776660        0.6535710
 C       -2.5249030        5.5867780        1.2213490
 H       -3.1356420        3.7737070        0.2510820
 H       -1.9106520        3.5312460        1.4878140
 H       -1.8355060        5.8852150        2.0174640
 H       -3.5323190        5.5606190        1.6668370
 H       -2.5266130        6.3801370        0.4624970
 H        3.0110480        2.0185340       -0.2160480
 C        0.2658440        2.4754490        3.6587970
 C       -0.0232500        1.6455830        4.9128450
 O       -0.5096190        3.4195440        3.3542620
 H        0.5456620        2.0380700        5.7722870
 H       -1.0894080        1.7416820        5.1468910
 H        0.2269270        0.5873480        4.7779560
 C        5.1064720        1.0559780        3.9433500
 C        4.7377470       -0.2804900        4.6658370
 C        6.4116820        0.8190920        3.1324520
 C        5.3927590        2.1643010        5.0074710
 H        3.8549490       -0.1721320        5.3113740
 H        5.5745280       -0.6129870        5.2989100
 H        4.5242060       -1.0748130        3.9353550
 H        6.7416180        1.7290060        2.6094110
 H        6.2936090        0.0162230        2.3902120
 H        7.2200350        0.5197120        3.8153870
 H        5.6652940        3.1140660        4.5231310
 H        6.2284190        1.8601380        5.6560060
 H        4.5234900        2.3534840        5.6527290
 H       -3.2539480        1.3878040        0.3076880
 C       -1.2558000        2.1287690       -3.9318810
 C       -1.6067840        2.5119200       -5.3770370
 O       -0.0468250        2.1058250       -3.5809300
 H       -2.4868650        3.1669020       -5.4390550
 H       -0.7380700        3.0134210       -5.8197220
 H       -1.8112520        1.6117210       -5.9791590
