67
Mol_000126_2D_DFT last geometry from G09 out file
 Ru        0.6464910        0.1424820        0.3387870
 C       -0.4346280       -0.8794920       -0.7026570
 Cl       -0.4786660        0.1174980        2.4838480
 Cl        2.6203060        0.0234250       -1.0578180
 H       -1.1264200       -0.5684230       -1.4904680
 H       -0.3238710       -1.9746760       -0.5479810
 C        0.1228160        1.9586190       -0.0964740
 N        0.9321630        3.0228870        0.2747760
 N       -0.9908080        2.4866470       -0.7344080
 C        2.0963250        2.9306010        1.1353240
 C        0.4832980        4.3276250       -0.3713340
 C        3.4106540        2.9634890        0.6132150
 C        1.9181350        2.8634960        2.5378370
 C        4.5179370        2.9363300        1.4818250
 C        4.3562650        2.8618280        2.8880430
 H        5.5229690        2.9511070        1.0556060
 C        3.0342250        2.8220610        3.3958530
 H        2.8702340        2.7569160        4.4732530
 C       -1.0600920        4.0096680       -0.5505430
 C       -2.1522890        1.7525020       -1.1834230
 C       -3.0737850        1.2055860       -0.2586870
 C       -2.3942110        1.5922480       -2.5676830
 C       -4.2163110        0.5222400       -0.7191020
 C       -4.4815490        0.3670900       -2.1032650
 H       -4.9038390        0.0929240        0.0124300
 C       -3.5436790        0.9117180       -3.0167720
 H       -3.7039780        0.7915080       -4.0901160
 C       -5.7375070       -0.3427790       -2.5914400
 C       -6.9536120        0.6128030       -2.7777280
 H       -6.0207560       -1.1334200       -1.8777970
 H       -5.5353860       -0.8427290       -3.5527820
 C       -8.2212660       -0.1180740       -3.2711890
 H       -6.6826550        1.4072690       -3.4931790
 H       -7.1667090        1.1166240       -1.8201530
 H       -8.5374250       -0.8969290       -2.5589530
 H       -9.0598170        0.5855710       -3.3913430
 H       -8.0503470       -0.6045780       -4.2448920
 C        1.2297980        4.4906730       -1.7279740
 H        1.0685120        3.6266000       -2.3846360
 H        2.3073240        4.5834570       -1.5475880
 H        0.9060880        5.4005770       -2.2510890
 C        0.7752100        5.5538040        0.5201780
 H        0.3294460        6.4532310        0.0720550
 H        1.8569590        5.7227030        0.5954120
 H        0.3828620        5.4417600        1.5359820
 C       -1.7123990        4.7245330       -1.7533290
 H       -1.6341440        5.8129830       -1.6196300
 H       -2.7793500        4.4764140       -1.8170760
 H       -1.2452650        4.4617760       -2.7077000
 C       -1.8977510        4.3080620        0.7269940
 H       -1.4679240        3.8317870        1.6166070
 H       -2.9188320        3.9286500        0.5963270
 H       -1.9687680        5.3892180        0.9054950
 H        3.5680770        2.9610190       -0.4619810
 H        0.9124910        2.8214900        2.9507160
 C        5.5601010        2.7709120        3.8160030
 C        6.0083940        1.3043640        4.0919830
 H        5.3284690        3.2529530        4.7800780
 H        6.4111860        3.3212260        3.3822840
 C        7.2295120        1.2162970        5.0328010
 H        6.2421540        0.8124600        3.1334030
 H        5.1637960        0.7454070        4.5276430
 H        7.0140390        1.6694500        6.0139460
 H        7.5171130        0.1673390        5.2049040
 H        8.1026180        1.7371020        4.6075170
 H       -2.8736640        1.2785900        0.8082250
 H       -1.6721690        1.9788010       -3.2865610
