97
Mol_000193_2D_DFT last geometry from G09 out file
 Ru        0.1379090       -0.0816900       -0.2188460
 C       -1.2464370       -0.9733630       -0.9799900
 Cl       -0.2666950       -0.6728820        2.0962510
 Cl        1.4815520        0.0669030       -2.2376890
 H       -2.1879110       -0.5975840       -1.3838020
 H       -1.0725150       -2.0684660       -1.0717500
 C       -0.3654770        1.8034510       -0.1617100
 N        0.5730100        2.7534260        0.2402380
 N       -1.5397960        2.4581490       -0.4840640
 C        1.6721460        2.4354850        1.1589240
 C        0.1036760        4.1865700       -0.1310640
 C        3.0486900        2.3025840        0.7816980
 C        1.3142770        2.2831530        2.5233810
 C        3.9787730        2.0233080        1.8181260
 C        3.6267590        1.8719320        3.1770700
 H        5.0286620        1.9181310        1.5508120
 C        2.2625650        2.0101130        3.5188900
 H        1.9358510        1.8836120        4.5522550
 C       -1.4932670        3.9589180       -0.0630700
 C       -2.6188180        1.8853310       -1.2717940
 C       -3.7857620        1.2900500       -0.7004790
 C       -2.4844230        1.9423350       -2.6820000
 C       -4.8043520        0.8665700       -1.5966350
 C       -4.6994030        0.9588760       -3.0021820
 H       -5.7118390        0.4333550       -1.1762080
 C       -3.4983740        1.4855950       -3.5381610
 H       -3.3549480        1.5373330       -4.6190760
 C       -5.8267270        0.5003110       -3.9125500
 H       -6.6118660       -0.0283720       -3.3552250
 H       -5.4570380       -0.1766560       -4.6983390
 H       -6.2994110        1.3564090       -4.4220400
 C        0.6633690        4.4455520       -1.5855930
 C        0.5657660        5.8419450       -2.2683620
 H        0.2376450        3.6899810       -2.2604710
 H        1.7277880        4.2051650       -1.5251590
 C        1.5388480        5.9435020       -3.4684150
 H        0.7973760        6.6484440       -1.5578210
 H       -0.4484950        6.0401750       -2.6357980
 H        2.5879400        5.8402570       -3.1492410
 H        1.3406140        5.1553150       -4.2120960
 H        1.4372630        6.9156110       -3.9764250
 C        0.5876160        5.2705290        0.8793660
 C        2.0635330        5.7526930        0.8753980
 H        0.3653700        4.9260490        1.8950600
 H       -0.0424110        6.1556220        0.7071490
 C        2.2666090        6.9260910        1.8631300
 H        2.3739670        6.0804710       -0.1255950
 H        2.7340580        4.9362680        1.1635990
 H        3.3169160        7.2569480        1.8653340
 H        1.6435580        7.7953990        1.5959890
 H        2.0096630        6.6330350        2.8936050
 C       -2.2678020        4.8919170       -1.0463830
 C       -3.8196100        4.9569890       -1.0162310
 H       -1.9720440        4.6475250       -2.0718950
 H       -1.8999770        5.9106740       -0.8553590
 C       -4.3508610        5.9987330       -2.0295620
 H       -4.1855480        5.2270610       -0.0165300
 H       -4.2553660        3.9811880       -1.2564920
 H       -4.0534060        5.7458770       -3.0596890
 H       -5.4508720        6.0430300       -2.0033160
 H       -3.9713160        7.0100010       -1.8096010
 C       -2.1240340        4.0167340        1.3819450
 C       -2.3869090        5.3693790        2.1095870
 H       -1.5372820        3.3696170        2.0470080
 H       -3.0980460        3.5287070        1.2822260
 C       -3.4083320        5.1956590        3.2598020
 H       -2.7666490        6.1298060        1.4123340
 H       -1.4627040        5.7786790        2.5347370
 H       -4.3914690        4.8707000        2.8838000
 H       -3.0663440        4.4439940        3.9890450
 H       -3.5543370        6.1432130        3.8020220
 C        3.5677730        2.5091070       -0.6425430
 C        4.7945010        1.6620440       -1.0715620
 H        3.8396540        3.5741480       -0.7603700
 H        2.7611580        2.3041290       -1.3515850
 C        5.1743440        1.9050940       -2.5495590
 H        4.5664010        0.5950470       -0.9255770
 H        5.6711480        1.8940820       -0.4452160
 H        4.3477150        1.6283100       -3.2200000
 H        5.4244820        2.9635640       -2.7329110
 H        6.0516500        1.3019910       -2.8318830
 H        0.2656150        2.3489600        2.7990990
 C        4.6710260        1.5347870        4.2278680
 H        5.6827060        1.8172410        3.9042980
 H        4.6818680        0.4508730        4.4328060
 H        4.4641230        2.0417710        5.1821360
 C       -3.9775330        1.0712710        0.8018370
 C       -4.4753580       -0.3400040        1.2241600
 H       -4.7050900        1.8102510        1.1843980
 H       -3.0322860        1.2569770        1.3205440
 C       -4.5877260       -0.4764360        2.7589150
 H       -3.7757970       -1.1011510        0.8472630
 H       -5.4574280       -0.5563130        0.7737710
 H       -4.9525730       -1.4779130        3.0356590
 H       -3.6081920       -0.3350370        3.2389250
 H       -5.2886350        0.2632050        3.1801760
 H       -1.5591380        2.3307780       -3.1039220
