69
M00000099_2D_DFT last geometry from G09 out file
Ru        0.0153330       -0.1044710        0.2771740
C       -1.5383610       -0.7587230       -0.3985060
Cl       -0.5031540       -0.1362780        2.6433550
Cl        1.4982240       -0.6961120       -1.5255470
H       -2.3491460       -0.2332420       -0.9072690
H       -1.6523030       -1.8590000       -0.2923720
C       -0.0834170        1.8169870       -0.0234650
N        1.0442040        2.6241760        0.1543580
N       -1.1489800        2.6680750       -0.3467970
C        0.6724470        4.0780310        0.1958300
C        2.3489190        2.2018810        0.6471800
C        0.4829380        4.6172170        1.6401620
C       -0.6108160        4.0596740       -0.6575660
H        1.4476140        4.6741530       -0.2984370
C       -0.3212840        5.9000910        1.6411000
H       -0.0283120        3.8614740        2.2560650
H        1.4675240        4.7802660        2.1018770
C       -1.2529950        6.1730010        0.6974870
H       -0.1453370        6.6074890        2.4555190
C       -1.5726850        5.2618280       -0.4694010
H       -1.8242260        7.1044550        0.7478450
H       -2.6090210        4.9032830       -0.3925230
H       -1.5541640        5.8624330       -1.3948830
H       -0.3169670        4.0371730       -1.7199660
C        2.3721140        1.7607080        1.9979840
C        3.5687190        2.3019560       -0.1100510
C        3.5538010        1.3927610        2.6576360
C        4.7364580        1.5219880        1.9240740
H        3.5517940        1.0377060        3.6862110
C        4.7554800        1.9631680        0.5992140
H        5.7246270        2.0254790        0.1139160
C       -2.3564650        2.2720490       -1.0602850
C       -2.1472930        2.0100180       -2.4452240
C       -3.6763930        2.2153120       -0.5002130
C       -3.1898250        1.6970420       -3.3271160
C       -4.4763690        1.6589690       -2.7731990
H       -3.0166750        1.4863960       -4.3807600
C       -4.7202950        1.8982550       -1.4207670
H       -5.7496700        1.8280250       -1.0814460
H        1.4338970        1.6989840        2.5405050
C        3.8008540        2.7486860       -1.5991580
C        4.6965020        1.6844860       -2.3240530
C        2.5311930        2.8983890       -2.4841920
C        4.5476900        4.1255710       -1.5882270
H        4.2133970        0.6992000       -2.3103350
H        5.6952070        1.5834120       -1.8812700
H        4.8388990        1.9837080       -3.3730180
H        1.9082520        3.7468230       -2.1868650
H        1.9286300        1.9856050       -2.4823770
H        2.8521630        3.0898770       -3.5190600
H        4.7493100        4.4498030       -2.6204170
H        5.5094970        4.0702210       -1.0604010
H        3.9447580        4.9068740       -1.1002390
F        5.9638410        1.2004300        2.5353420
H       -1.1268410        2.0291530       -2.8253660
C       -4.1446470        2.3978980        0.9870850
C       -4.7530470        1.0388210        1.4782540
C       -3.0459770        2.7913110        2.0104680
C       -5.2498710        3.5067550        1.0486460
H       -3.9856500        0.2533640        1.5021050
H       -5.5831640        0.6918220        0.8483830
H       -5.1383840        1.1592600        2.5014470
H       -3.5108390        2.8512930        3.0062590
H       -2.6091470        3.7711620        1.7977630
H       -2.2494620        2.0473010        2.0675740
H       -4.8634760        4.4757070        0.6988590
H       -5.5797310        3.6341760        2.0900470
H       -6.1389590        3.2651880        0.4514830
F       -5.5698340        1.3579310       -3.6073340
