85
M00000055_2D_DFT last geometry from G09 out file
Ru        0.2236970       -0.1408100        0.1671420
C       -1.2669490       -0.9456020       -0.4857070
Cl       -0.2205440       -0.4470050        2.5255700
Cl        1.6501490       -0.5071610       -1.7578720
H       -2.1617700       -0.4937630       -0.9187100
H       -1.2444710       -2.0561600       -0.4386920
C       -0.0971210        1.7800650       -0.0467810
N        0.8492180        2.7138500        0.3776980
N       -1.1482360        2.4817290       -0.6186950
C        0.4070520        4.1492950        0.1540010
C        1.9493240        2.4332030        1.3055060
C       -0.8648470        3.9759120       -0.7316860
H        0.1179980        4.5380530        1.1378740
H       -0.6026200        4.1496600       -1.7829050
C        3.2521980        2.1403930        0.7982860
C        1.7133070        2.5465530        2.7098230
C        4.3040090        1.8569070        1.7207870
C        4.0588750        1.8950640        3.1231660
C        2.7822710        2.2930830        3.6141000
C       -2.2846930        1.9411930       -1.3496590
C       -3.4923180        1.6524660       -0.6449160
C       -2.1938950        1.7881700       -2.7646770
C       -4.6357500        1.2221990       -1.3817380
C       -4.5598490        1.0722040       -2.7979210
C       -3.3492100        1.3721130       -3.4881360
C        1.5617210        5.0873180       -0.3631170
C        1.4715140        6.5032840        0.2676800
C        1.7346310        5.1839330       -1.8993310
H        2.4835700        4.6451030        0.0391290
H        1.4581950        6.4517370        1.3674140
H        0.5788210        7.0551670       -0.0572370
H        2.3495800        7.1003490       -0.0223900
H        2.6858940        5.6876100       -2.1299730
H        0.9352830        5.7736070       -2.3710760
H        1.7640270        4.1978230       -2.3806250
C       -2.1187790        4.8823080       -0.4374290
C       -2.1640050        6.1126250       -1.3838300
C       -2.3278770        5.3190380        1.0338990
H       -2.9861040        4.2666810       -0.7145330
H       -3.1028860        6.6673280       -1.2341680
H       -2.1276930        5.8069800       -2.4408950
H       -1.3375090        6.8137540       -1.2048180
H       -2.2790020        4.4742970        1.7320970
H       -3.3241550        5.7752840        1.1409960
H       -1.5933700        6.0721520        1.3535670
C        3.5468530        2.1493240       -0.6936390
H        2.6432900        2.3000120       -1.2817690
H        3.9792140        1.1980840       -1.0255620
H        4.2631830        2.9483380       -0.9463260
C        0.3465830        2.9126980        3.2697080
H        0.0690990        2.2405150        4.0895510
H       -0.4405740        2.8251340        2.5210220
H        0.3371850        3.9424510        3.6665940
C        5.7000980        1.5119440        1.2082650
H        5.8388740        1.7860810        0.1590390
H        5.8977720        0.4289410        1.2848730
H        6.4821180        2.0262060        1.7844350
C        5.1589800        1.5054720        4.1067360
H        5.9213890        0.8734590        3.6402930
H        4.7524860        0.9427050        4.9570220
H        5.6749900        2.3904130        4.5187400
C        2.5427540        2.4198220        5.1151020
H        3.4653110        2.6451910        5.6619910
H        2.1293180        1.4859940        5.5344450
H        1.8276210        3.2182680        5.3477680
C       -3.5536870        1.7467390        0.8738440
H       -4.2615260        2.5217370        1.2073370
H       -2.5775090        1.9720220        1.3028480
H       -3.8832910        0.7948710        1.3149170
C       -0.8803050        2.0138910       -3.5011470
H       -0.6631880        1.1750970       -4.1759280
H       -0.0342580        2.0819160       -2.8165150
H       -0.9057930        2.9285630       -4.1168030
C       -5.9461180        0.9220710       -0.6581000
H       -6.8014820        1.3918800       -1.1646290
H       -5.9443010        1.2834370        0.3737670
H       -6.1494090       -0.1616980       -0.6193220
C       -5.7686310        0.5747030       -3.5853280
H       -6.4780610        0.0290300       -2.9551890
H       -5.4701310       -0.1024290       -4.3960620
H       -6.3212300        1.4099700       -4.0501340
C       -3.2889900        1.2347070       -5.0064170
H       -3.0930810        0.1919000       -5.3115680
H       -2.4968480        1.8503900       -5.4448940
H       -4.2327840        1.5368640       -5.4782840
