51
Mol_000170_2D_DFT last geometry from G09 out file
 Ru        0.1983380       -0.0134600        0.0342500
 C       -0.8680580       -0.6614000       -1.2868580
 Cl       -1.2222430       -0.0168320        1.9966720
 Cl        2.3207530       -0.4381760       -1.0336050
 H       -1.2970210       -0.1187510       -2.1356390
 H       -1.0444040       -1.7575890       -1.2630900
 C        0.1025840        1.8943120       -0.3012670
 N        1.0879170        2.7535480        0.1627550
 N       -0.8181890        2.6609260       -0.9994430
 C        0.9081490        4.1724820       -0.2832860
 C        2.1985470        2.3879320        1.0091290
 C        0.8887160        5.1878510        0.8999600
 C       -0.4266640        4.1127700       -1.0913430
 H        1.7429460        4.4365910       -0.9506520
 C       -0.4230270        5.1644360        1.6571000
 H        1.7427220        4.9935090        1.5610740
 H        1.0564340        6.1907400        0.4654440
 C       -1.5825930        5.1113710        0.9577000
 H       -0.4108580        5.1717720        2.7486450
 C       -1.5251290        5.0816610       -0.5561860
 H       -2.5528550        5.0754550        1.4567430
 H       -2.4956910        4.8194300       -0.9949800
 H       -1.2742840        6.0869430       -0.9427260
 H       -0.2404560        4.3538280       -2.1492060
 C        1.9739830        1.8302780        2.2880750
 C        3.5254240        2.6356860        0.5868500
 C        3.0676770        1.4930020        3.1123070
 C        4.4017640        1.7266990        2.7028850
 H        2.8711230        1.0486480        4.0898080
 C        4.6054530        2.3153120        1.4274710
 H        5.6229910        2.5008990        1.0775330
 C       -2.0835690        2.2483160       -1.5530440
 C       -2.3215980        2.3865730       -2.9402120
 C       -3.1215160        1.7690440       -0.7190130
 C       -3.5772200        2.0448340       -3.4840160
 C       -4.6225350        1.5493210       -2.6659590
 H       -3.7381960        2.1547880       -4.5580240
 C       -4.3650190        1.4170240       -1.2768900
 H       -5.1483880        1.0370600       -0.6177800
 H        0.9574430        1.6658240        2.6399030
 H        3.7159730        3.0411370       -0.4067180
 C        5.5790060        1.3347590        3.5796510
 H        6.0001430        0.3670500        3.2586440
 H        5.2839180        1.2296850        4.6330340
 H        6.3909600        2.0753320        3.5260040
 H       -1.5264690        2.7410110       -3.5973850
 H       -2.9441540        1.6530720        0.3477920
 C       -5.9703270        1.1598430       -3.2502000
 H       -6.1343300        0.0719930       -3.1792510
 H       -6.0514070        1.4389450       -4.3095830
 H       -6.7980630        1.6449140       -2.7094740
