59
M00000029_2D_DFT last geometry from G09 out file
Ru        0.3509690        0.0372060       -0.1872550
C       -1.0411310       -0.7615380       -1.0371340
Cl       -0.0905410       -0.6074880        2.1042510
Cl        1.8575510        0.3349560       -2.0390570
H       -1.9655140       -0.3329920       -1.4304160
H       -0.8988380       -1.8526750       -1.1935950
C       -0.1406740        1.9091980       -0.0259080
N        0.8044830        2.8400650        0.4000740
N       -1.3210930        2.6095550       -0.2467940
C        0.1968060        4.1689080        0.6656350
C        2.1570970        2.5896680        0.8567750
C       -1.1437240        4.1208080       -0.1130550
H        0.8524200        4.9744420        0.3198470
H        0.0382860        4.2923790        1.7502940
C       -2.2916060        4.8774600        0.6110680
C       -1.0655660        4.8800040       -1.4762510
C       -2.0772510        6.3720750        0.2367760
H       -2.2892530        4.7103450        1.6959360
H       -3.2590020        4.5300350        0.2231750
C       -1.2516610        6.3735850       -1.0960900
H       -3.0407780        6.8881110        0.1214350
H       -1.5287160        6.8996870        1.0310380
H       -0.2808610        6.8693140       -0.9478950
H       -1.7652540        6.9227020       -1.8977150
H       -1.8984020        4.5616520       -2.1155870
H       -0.1316630        4.6784920       -2.0174150
C        3.2731970        3.0786860        0.1139440
C        2.3479140        1.9375040        2.0964380
C        4.5616600        2.8666210        0.6537820
C        4.7510180        2.2046420        1.8860900
H        5.4280160        3.2238280        0.0989230
C        3.6393470        1.7288150        2.6102300
H        3.7687940        1.2159120        3.5614360
C       -2.5691740        2.0600560       -0.7264450
C       -2.8100640        2.0392350       -2.1219030
C       -3.5627240        1.5844470        0.1811020
C       -4.0316490        1.5848660       -2.6447170
C       -5.0302480        1.1342470       -1.7549100
H       -4.1939650        1.5674930       -3.7210010
C       -4.7892260        1.1332660       -0.3655070
H       -5.5592560        0.7653810        0.3109520
C        3.1283750        3.7907660       -1.2172860
H        2.3846960        3.2938140       -1.8502140
H        4.0826710        3.7967860       -1.7591240
H        2.8232150        4.8421260       -1.0860240
H        1.4852090        1.5778090        2.6505700
C        6.1491710        1.9648940        2.3945440
F        6.2072480        1.8097710        3.7985540
F        7.0392070        3.0203250        2.0717600
F        6.7374570        0.7888630        1.8492660
H       -2.0179520        2.3498710       -2.8002240
C       -3.3449430        1.5006100        1.6788300
H       -4.2999700        1.3873300        2.2081780
H       -2.8341350        2.3848260        2.0761060
H       -2.7133650        0.6366980        1.9300950
C       -6.3732280        0.7033050       -2.2868530
F       -7.0135430       -0.2536470       -1.4676250
F       -6.2974000        0.1409800       -3.5817850
F       -7.2862370        1.7942210       -2.3930180
