89
M00000028_2D_DFT last geometry from G09 out file
Ru       -0.2159510       -0.7196330        1.2504560
C       -1.3473380       -1.5018930        0.0565870
Cl       -1.5407760        0.3449040        2.9276730
Cl        1.5667070       -2.3444410        1.1732230
H       -1.4313120       -1.2878390       -1.0138900
H       -1.9352580       -2.3602660        0.4359850
C        0.1944970        0.9762870        0.3680230
N        1.3690310        1.6729760        0.6199080
N       -0.6413420        1.8321560       -0.3583960
C        2.4207430        1.0951800        1.4120380
C        1.4407340        3.0775830       -0.0449080
C        3.5178650        0.3362290        0.9003780
C        2.4419970        1.3038520        2.8156140
C        4.5364220       -0.1627370        1.7362940
C        4.4827630        0.0540970        3.1238550
H        5.3443770       -0.7369740        1.2906060
C        3.4231660        0.7943560        3.6774890
H        3.3436570        0.9835290        4.7468760
C       -0.1519200        3.3202970       -0.2400870
C       -1.6386320        1.3569440       -1.2793090
C       -3.0303540        1.1370840       -1.0339390
C       -1.2327210        0.9898580       -2.5956850
C       -3.9050970        0.6171690       -2.0134400
C       -3.4359120        0.3096810       -3.3011030
H       -4.9485830        0.4531860       -1.7516760
C       -2.0749650        0.4937140       -3.5997850
H       -1.6544820        0.2487140       -4.5737580
H       -4.1190700       -0.0799670       -4.0548770
C        2.3093140        2.9253960       -1.3497590
C        2.6785470        4.1632970       -2.2207570
H        3.2646700        2.5100600       -1.0065650
H        1.8642560        2.1623850       -1.9907150
C        3.9036870        3.8635190       -3.1241640
H        1.8426770        4.4497410       -2.8713390
H        2.9042010        5.0443900       -1.6019300
C        4.2635890        5.0311390       -4.0689500
H        3.7011790        2.9587390       -3.7225390
H        4.7771360        3.6225830       -2.4938090
H        5.1385750        4.7815560       -4.6891810
H        4.5049680        5.9461320       -3.5038640
H        3.4297530        5.2686590       -4.7491520
C        2.0776030        4.1490950        0.9014380
C        3.6185830        4.2029690        1.1003380
H        1.7805080        5.1251300        0.4939760
H        1.6111990        4.0733730        1.8872090
C        4.0122730        5.3204140        2.1012970
H        4.0132340        3.2501520        1.4747950
H        4.1323010        4.3964260        0.1489860
C        5.5376290        5.4322890        2.3174530
H        3.5197160        5.1348620        3.0717600
H        3.6252280        6.2896200        1.7394150
H        5.7787270        6.2342650        3.0325590
H        6.0608510        5.6571280        1.3742860
H        5.9554830        4.4934930        2.7149510
C       -0.4732850        4.1687500       -1.5051560
C       -1.9326380        4.6079320       -1.8055770
H        0.1232190        5.0866520       -1.4052540
H       -0.0857240        3.6534940       -2.3903740
C       -1.9835250        5.6057770       -2.9911220
H       -2.5602520        3.7440560       -2.0560080
H       -2.3960720        5.0769860       -0.9291000
C       -3.4191430        6.0482330       -3.3505810
H       -1.5113550        5.1491220       -3.8793220
H       -1.3800450        6.4979990       -2.7461760
H       -3.4170510        6.7602150       -4.1907700
H       -3.9114210        6.5396490       -2.4963830
H       -4.0416790        5.1875090       -3.6431730
C       -0.8691110        3.8757660        1.0512850
C       -0.8460310        5.3919290        1.4076030
H       -1.9193030        3.6042550        0.9312080
H       -0.5220490        3.3001150        1.9177580
C       -1.9482580        5.7314780        2.4462360
H        0.1196640        5.6943020        1.8322400
H       -1.0016560        6.0185210        0.5166710
C       -1.9312100        7.2113710        2.8881890
H       -1.8234230        5.0843940        3.3313080
H       -2.9381650        5.4853180        2.0268420
H       -2.7276020        7.4132120        3.6215860
H       -2.0864860        7.8887140        2.0324080
H       -0.9706640        7.4800480        3.3571630
N        3.6625340       -0.0109570       -0.5459610
O        2.6192660       -0.2305450       -1.2480140
O        4.8686690       -0.0806000       -1.0030840
F        1.4330790        2.0816030        3.3918260
H        5.2567930       -0.3585080        3.7700310
N       -3.7331720        1.4251070        0.2562230
O       -4.3422070        0.4462110        0.8115520
O       -3.7785930        2.6400270        0.6611350
F        0.1178620        1.1108100       -2.9347000
