77
M00000031_2D_DFT last geometry from G09 out file
Ru       -0.2598540       -0.0308330        0.1630080
C       -1.5055890       -0.6811080       -0.9884480
Cl       -1.5121270       -0.2943660        2.2097560
Cl        1.7314700       -0.7112660       -1.0173980
H       -2.1565300       -0.1298450       -1.6706280
H       -1.6192500       -1.7857770       -0.9789000
C       -0.3240610        1.9048650       -0.1325930
N        0.5114450        2.7969240        0.5786610
N       -1.0958640        2.6799680       -1.0157830
C        0.4884940        4.1417700       -0.1020340
C        1.6074920        2.4306580        1.4857190
C        0.7840060        5.4433880        0.6580700
C       -0.9259250        4.1435120       -0.6774680
H        1.2028900        4.0990130       -0.9398680
C        0.6181970        6.6111880       -0.3580740
H        1.8044980        5.4410010        1.0677690
H        0.0910180        5.5857790        1.4968950
C       -0.7578890        6.5955420       -1.0789190
H        1.4241410        6.5566320       -1.1101950
H        0.7464130        7.5703620        0.1685950
C       -1.0794110        5.2294720       -1.7534200
H       -1.5521920        6.8361400       -0.3512250
H       -0.7827120        7.3899070       -1.8419990
H       -2.0994170        5.2434410       -2.1635240
H       -0.3884360        5.0575310       -2.5895310
H       -1.6391120        4.3820230        0.1290960
C        1.4668170        2.4079570        2.9239280
C        2.8859110        2.1711470        0.8741450
C        2.6083310        1.9697990        3.6556100
C        3.8266700        1.6230170        3.0598870
H        2.5459510        1.9107160        4.7382100
C        3.9717890        1.7532540        1.6718730
H        4.9253860        1.5263220        1.1938470
C       -2.2479140        2.3023030       -1.8325660
C       -2.1576080        2.0702820       -3.2518060
C       -3.5250250        2.2888310       -1.1657840
C       -3.3910600        1.8625190       -3.9362660
C       -4.6382100        1.8635170       -3.3003000
H       -3.3739440        1.6905830       -5.0094380
C       -4.7013570        2.0645170       -1.9123430
H       -5.6630870        2.0480100       -1.3982350
C        0.2942620        2.9187570        3.8499110
C       -1.0619930        3.2406860        3.1702170
C       -0.0236440        1.8669710        4.9687810
C        0.7983000        4.2364740        4.5391830
H       -1.4929720        2.3528850        2.7061390
H       -0.9815840        4.0311310        2.4221940
H       -1.7640720        3.5900070        3.9429980
H        0.8022940        1.7260630        5.6776910
H       -0.2759080        0.8946870        4.5309680
H       -0.8892660        2.2123250        5.5537600
H        1.7129670        4.0719660        5.1242830
H        0.0239650        4.6156340        5.2239070
H        1.0121530        5.0210150        3.7995620
C        3.1760250        2.3814660       -0.6048120
H        3.4674410        3.4292440       -0.7935110
H        2.3364690        2.1310020       -1.2515720
H        4.0165720        1.7501220       -0.9167020
H        4.6583330        1.2783990        3.6765080
C       -0.8943610        1.9775980       -4.1894050
C       -1.0056550        3.0750040       -5.3028110
C        0.4958050        2.1397220       -3.5238850
C       -0.8763140        0.5619730       -4.8670950
H       -0.1315300        3.0152540       -5.9687010
H       -1.0293080        4.0832600       -4.8647630
H       -1.9025890        2.9617430       -5.9255460
H        0.6722700        1.3811690       -2.7591300
H        0.6369250        3.1313290       -3.0855340
H        1.2681520        2.0107190       -4.2974370
H       -0.0236690        0.4979920       -5.5595920
H       -1.7860910        0.3474960       -5.4419820
H       -0.7533550       -0.2290160       -4.1142860
C       -3.6804060        2.4901080        0.3336160
H       -3.6152870        3.5524350        0.6168960
H       -2.9306330        1.9405730        0.9066890
H       -4.6666820        2.1348360        0.6595960
H       -5.5480590        1.6985820       -3.8795600
