63
M00000015_2D_DFT last geometry from G09 out file
Ru       -0.6973810        0.6872390        1.0786820
C       -1.3582600       -0.3859880       -0.2601250
Cl       -2.8663550        1.1807030        2.1285300
Cl        1.5215850       -0.3701540        0.8271440
H       -1.3057370       -0.2231200       -1.3423210
H       -1.7789530       -1.3699880        0.0382450
C       -0.4069260        2.2830380        0.0794080
N        0.5645170        3.2528650        0.4522160
N       -1.0972830        2.8182570       -1.0251220
C        0.5618810        4.3961520       -0.5133060
C        1.7058970        3.0199550        1.2962340
C        0.8224560        5.8329000       -0.0248560
C       -0.8588340        4.3021980       -1.0686040
H        1.2766920        4.1722580       -1.3276140
C        0.6639380        6.7739230       -1.2562040
H        1.8259620        5.9477410        0.4054550
H        0.0976050        6.0999850        0.7604250
C       -0.6789530        6.5862010       -2.0172040
H        1.5028350        6.5946540       -1.9511660
H        0.7528300        7.8212050       -0.9257810
C       -0.9880830        5.1014040       -2.3727820
H       -1.5038060        6.9827000       -1.4006990
H       -0.6630180        7.1869150       -2.9406590
H       -2.0004090        5.0182930       -2.7924520
H       -0.2815190        4.7367220       -3.1331380
H       -1.5546600        4.7584630       -0.3385320
C        1.5935060        2.3990140        2.5768680
C        2.9846930        3.4281400        0.8461210
C        2.7605230        2.2143590        3.3499060
C        4.0263050        2.6260280        2.8906310
H        2.6905550        1.7312830        4.3215700
C        4.1374680        3.2398380        1.6298150
H        5.1095220        3.5521650        1.2456710
C       -2.3122220        2.3269320       -1.6585730
C       -2.3210390        1.5891320       -2.9021780
C       -3.5324830        2.7089680       -1.0551780
C       -3.6111030        1.3366270       -3.4727260
C       -4.8090290        1.7301990       -2.8549890
H       -3.6758540        0.8303080       -4.4321660
C       -4.7827520        2.4123600       -1.6232510
H       -5.7020620        2.6971230       -1.1121220
N        0.2768700        1.9658380        3.0461420
C        0.2894930        0.9162850        4.1144180
C       -0.5318850        3.1486500        3.5124060
H        0.9131960        0.0742600        3.7954340
H       -0.7416750        0.5689780        4.2513200
H        0.6552160        1.2999830        5.0845910
H       -1.5420190        2.8124770        3.7609950
H       -0.6006790        3.8916600        2.7128980
H       -0.0575090        3.6133750        4.3958030
H        3.0954250        3.8630660       -0.1447990
H        4.9093290        2.4617370        3.5096410
N       -1.1850170        1.0149970       -3.5258330
C       -1.3768260       -0.0167140       -4.5604010
C        0.1369880        1.6625980       -3.6015780
H       -1.6676300        0.3953840       -5.5474250
H       -2.1366510       -0.7458300       -4.2499840
H       -0.4291540       -0.5571610       -4.6916600
H        0.3044250        2.2961430       -2.7350450
H        0.2399050        2.2734570       -4.5211310
H        0.9231760        0.8928870       -3.6125990
H       -3.4880100        3.2131480       -0.0917400
H       -5.7590180        1.5029860       -3.3427260
