61
M00000012_2D_DFT last geometry from G09 out file
Ru        0.2983740       -0.0076860        0.1257950
C       -1.1400130       -0.8207740       -0.6275440
Cl       -0.2634170       -0.2712030        2.4512020
Cl        1.8438800       -0.0672260       -1.7591810
H       -2.0492420       -0.3840810       -1.0469390
H       -1.0756640       -1.9310130       -0.6369320
C       -0.0409320        1.8968160       -0.0461030
N        0.8586180        2.8038490        0.4976190
N       -0.9917340        2.6169510       -0.7471770
C        0.5788530        4.2213820        0.1154380
C        1.9280550        2.4961850        1.4382200
C       -0.7317370        4.1005350       -0.7370140
H        0.3858550        4.8176970        1.0118000
H       -0.5372060        4.4203310       -1.7693610
C        1.7894390        2.8101290        2.8229800
C        3.1221810        1.9173430        0.9463620
C        2.8886050        2.5207140        3.6691470
C        4.0761700        1.9381450        3.1845690
H        2.7972370        2.7415820        4.7343370
C        4.1916070        1.6281410        1.8149620
H        5.0992060        1.1686270        1.4211330
C       -2.1854580        2.1263750       -1.4018850
C       -2.2286640        1.9404720       -2.8146180
C       -3.3316210        1.8970900       -0.6045330
C       -3.4610210        1.5228540       -3.3799940
C       -4.6055470        1.2939150       -2.5887530
H       -3.5162810        1.3650020       -4.4585480
C       -4.5405270        1.4766060       -1.1911420
H       -5.4153950        1.2944340       -0.5656060
C       -1.0151240        2.1447440       -3.7052330
H       -1.2026340        1.7495830       -4.7123550
H       -0.1300680        1.6370860       -3.3022590
H       -0.7632370        3.2119050       -3.8187590
H       -3.2563110        2.0379340        0.4725710
C        1.7198240        4.9072170       -0.6417520
C        2.4267790        4.2890740       -1.7012240
N        1.9769990        6.1884230       -0.2374390
C        3.4347610        5.0179940       -2.3627390
H        2.2070040        3.2627800       -1.9906220
C        3.7079070        6.3414000       -1.9533130
H        3.9991650        4.5596860       -3.1761560
C        2.9526300        6.8804210       -0.8905950
H        4.4832420        6.9364030       -2.4365860
H        3.1289840        7.8983070       -0.5370710
H       -5.5352740        0.9691830       -3.0591590
C       -1.8944480        4.9424410       -0.2048980
C       -2.5813270        5.8384250       -1.0552670
N       -2.2167940        4.8000470        1.1150200
C       -3.6354270        6.6148150       -0.5292080
H       -2.2994280        5.9283710       -2.1046410
C       -3.9746220        6.4698820        0.8314330
H       -4.1777840        7.3143530       -1.1666170
C       -3.2368960        5.5501410        1.6099940
H       -4.7814180        7.0492390        1.2806580
H       -3.4635790        5.4063000        2.6683820
C        0.5348170        3.4188170        3.4221830
H        0.4076930        3.0806760        4.4594180
H       -0.3669240        3.1476320        2.8655680
H        0.5966020        4.5199930        3.4418420
H        3.2056730        1.6836220       -0.1108660
H        4.8962940        1.7208110        3.8711540
