53
M00000016_2D_DFT last geometry from G09 out file
Ru        0.3858820       -0.1014050        0.5520570
C       -1.2076270       -0.8037900        0.0351260
Cl       -0.0465520       -0.0713170        2.9370530
Cl        1.7422960       -0.5859540       -1.3839570
H       -2.1094610       -0.2888000       -0.3098920
H       -1.2720440       -1.9109640        0.1069570
C        0.1544860        1.8022570        0.2674980
N        1.1261810        2.7184810        0.6726890
N       -0.9284170        2.5358880       -0.2066540
C        0.5638270        4.0993430        0.7652730
C        2.3954250        2.4237940        1.3196570
C       -0.6818330        4.0126190       -0.1302610
H        0.3073720        4.3281830        1.8124380
H       -0.4985240        4.4024330       -1.1446740
C        2.3902400        2.3820400        2.7359310
C        3.6337100        2.2492350        0.5926410
C        3.5467700        2.1144530        3.4839620
C        4.7538600        1.8867180        2.7878940
H        3.5005530        2.0586440        4.5711260
C        4.7925630        1.9569140        1.3894010
H        5.7501020        1.8246420        0.8907180
C       -2.0005680        2.1115770       -1.0709400
C       -1.6727940        1.5441280       -2.3240410
C       -3.3710160        2.3975460       -0.7363960
C       -2.6660560        1.2499100       -3.2768340
C       -4.0101620        1.5564390       -2.9780690
H       -2.3913160        0.8060800       -4.2339360
C       -4.3520390        2.1153330       -1.7330880
H       -5.4010180        2.3095810       -1.5189020
H       -0.6271160        1.3316520       -2.5409130
N       -3.7362170        2.9879720        0.5056910
C       -5.0281890        3.6898670        0.6000200
C       -3.3454160        2.3256200        1.7739090
H       -5.8985860        3.0093060        0.6998200
H       -5.1840960        4.3291560       -0.2788440
H       -5.0117370        4.3351560        1.4908130
H       -4.0914500        1.5642260        2.0769670
H       -3.2778720        3.0726680        2.5797070
H       -2.3782220        1.8322950        1.6845760
H        1.2910830        4.8452390        0.4224770
H       -4.7970140        1.3471730       -3.7051770
H       -1.5566590        4.5188220        0.2924010
H        1.4375940        2.5066950        3.2472670
N        3.7902190        2.3272950       -0.7969850
C        2.9576110        3.1410410       -1.6911750
C        4.8719290        1.5842940       -1.4661640
H        2.1391260        2.5631050       -2.1498390
H        3.5905790        3.5386990       -2.5004540
H        2.5398040        4.0029290       -1.1637420
H        5.0817180        0.6454680       -0.9397540
H        5.8083150        2.1695000       -1.5469150
H        4.5459010        1.3159140       -2.4800500
H        5.6736550        1.6708980        3.3352880
