71
M00000019_2D_DFT last geometry from G09 out file
Ru       -0.2081180       -0.0352880        1.2696430
C       -1.6386030       -0.9854320        0.6772920
Cl       -1.0870080        0.6569460        3.4043300
Cl        1.5792000       -0.9716970       -0.0671520
H       -2.4476850       -0.6706070        0.0138910
H       -1.7080730       -2.0158340        1.0878750
C       -0.3089220        1.6365980        0.2964860
N        0.5060500        2.7230860        0.6529950
N       -0.9975070        2.0056290       -0.8646270
C        0.5943860        3.6784930       -0.4999720
C        1.5400210        2.7162980        1.6789370
C        0.8655250        5.1728970       -0.2858310
C       -0.7777780        3.4677960       -1.1408380
H        1.3746880        3.2908430       -1.1845820
C        0.8310370        5.8427640       -1.6915500
H        1.8441620        5.3393180        0.1864860
H        0.0990580        5.6161550        0.3663030
C       -0.4625380        5.5274630       -2.4949310
H        1.7087290        5.5057540       -2.2694260
H        0.9329810        6.9337520       -1.5769440
C       -0.7866270        4.0060310       -2.5780770
H       -1.3158600        6.0491910       -2.0281520
H       -0.3680700        5.9345460       -3.5143290
H       -1.7637420        3.8561970       -3.0593470
H       -0.0307640        3.4869500       -3.1861010
H       -1.5353950        4.0321770       -0.5624200
C        1.3541920        3.4046450        2.9142560
C        2.7659390        2.0680570        1.3861420
C        2.4312130        3.3727850        3.8381860
C        3.6449610        2.7181680        3.5568510
H        2.3063350        3.8605770        4.8057660
C        3.8182460        2.0634370        2.3196810
H        4.7487860        1.5436430        2.0880310
C       -2.1658330        1.3678350       -1.4400850
C       -2.0655390        0.4919250       -2.5592030
C       -3.4304850        1.7033830       -0.8929050
C       -3.2792130       -0.0365050       -3.0773400
C       -4.5356810        0.2947080       -2.5367060
H       -3.2308810       -0.7304400       -3.9179170
C       -4.6157070        1.1745870       -1.4348920
H       -5.5810650        1.4321510       -0.9969750
C        0.0612620        4.1175840        3.2974210
C        0.2196420        5.6226630        3.6529400
H       -0.6732730        4.0098900        2.4905890
H       -0.3718450        3.5953070        4.1651920
C       -1.1272060        6.2885640        4.0258500
H        0.9178590        5.7384050        4.4979790
H        0.6728430        6.1632510        2.8053370
C       -0.9918450        7.7827990        4.3942020
H       -1.5783770        5.7433490        4.8732120
H       -1.8340990        6.1830640        3.1835980
H       -1.9697520        8.2189840        4.6526790
H       -0.5755980        8.3663270        3.5569990
H       -0.3252990        7.9210710        5.2605890
H        2.8785550        1.5435750        0.4398490
H        4.4446230        2.7112560        4.2997170
C       -0.7376190        0.0704100       -3.1789210
C       -0.5633230        0.4675900       -4.6724260
H        0.0939350        0.4781370       -2.5947120
H       -0.6487440       -1.0265030       -3.1012390
C        0.7936480        0.0028490       -5.2542610
H       -1.3786090        0.0347700       -5.2757780
H       -0.6507000        1.5618250       -4.7778470
C        0.9879640        0.3883030       -6.7374670
H        0.8780320       -1.0927110       -5.1477280
H        1.6149620        0.4309940       -4.6535080
H        1.9628760        0.0397110       -7.1131040
H        0.9471260        1.4808030       -6.8770350
H        0.2062630       -0.0585960       -7.3727370
H       -3.4745130        2.3601660       -0.0233140
H       -5.4434030       -0.1355240       -2.9633220
