103
Mol_000046_2D_DFT last geometry from G09 out file
 Ru        0.4351290       -0.8860030       -0.3383740
 C       -1.2010930       -1.4687530       -0.8597710
 Cl        0.3466450       -1.5687040        1.9762840
 Cl        1.4454290       -0.7912570       -2.5576930
 H       -2.1216890       -0.9130860       -1.0423310
 H       -1.2463320       -2.5673780       -1.0298460
 C        0.3643100        1.0533650       -0.1523560
 N        1.5147040        1.7347220        0.2553540
 N       -0.5885260        1.9795900       -0.5287750
 C        2.4242020        1.2564580        1.3054180
 C        1.4925900        3.1904320       -0.2859980
 C        3.6744180        0.5964510        1.0786740
 C        2.0027910        1.5134250        2.6377070
 C        4.4541880        0.2800770        2.2253270
 C        4.0437770        0.5691310        3.5366750
 H        5.4103540       -0.2217800        2.0797250
 C        2.7926690        1.1822060        3.7485090
 H        2.4297130        1.3821970        4.7575950
 C       -0.1046800        3.4469210       -0.3050680
 C       -1.8178710        1.6335320       -1.2306390
 C       -3.0698260        1.4122360       -0.5701090
 C       -1.7242580        1.4947410       -2.6396780
 C       -4.1904450        1.1229250       -1.3966380
 C       -4.0998880        1.0233350       -2.7968500
 H       -5.1587640        0.9559810       -0.9250690
 C       -2.8492040        1.1944550       -3.4260500
 H       -2.7461440        1.0840070       -4.5062800
 H       -4.9896430        0.7951010       -3.3862240
 C        2.1648570        3.0898110       -1.7131910
 C        2.5117460        4.3540280       -2.5530520
 H        3.1079870        2.5620040       -1.5350390
 H        1.5697990        2.4038440       -2.3299680
 C        3.5440640        4.0253040       -3.6638210
 H        1.6187330        4.7691490       -3.0375080
 H        2.9203640        5.1566420       -1.9214370
 C        3.8635670        5.2305020       -4.5757130
 H        3.1626420        3.1925230       -4.2798110
 H        4.4782550        3.6611170       -3.2022860
 H        4.6020870        4.9591650       -5.3463340
 H        4.2779560        6.0725290       -3.9977200
 H        2.9603350        5.5927340       -5.0927780
 C        2.2319480        4.2150340        0.6262750
 C        3.7817050        4.2511350        0.6880040
 H        1.8983700        5.2091400        0.2948240
 H        1.8720380        4.0968610        1.6532410
 C        4.2793140        5.4423940        1.5467770
 H        4.1707570        3.3240360        1.1224630
 H        4.2190060        4.3410230       -0.3154680
 C        5.8188850        5.5148780        1.6511220
 H        3.8522570        5.3649020        2.5622220
 H        3.8992630        6.3890810        1.1218160
 H        6.1358600        6.3703870        2.2681760
 H        6.2827840        5.6291620        0.6581190
 H        6.2300490        4.6013120        2.1090250
 C       -0.5306920        4.4013090       -1.4667290
 C       -1.9901450        4.9237950       -1.5653540
 H        0.1214680        5.2832020       -1.3903450
 H       -0.2850770        3.9235770       -2.4208290
 C       -2.1638270        5.8739810       -2.7783760
 H       -2.6989370        4.0945210       -1.6691270
 H       -2.2759500        5.4715110       -0.6566430
 C       -3.5972590        6.4344970       -2.9100320
 H       -1.8997320        5.3356750       -3.7054560
 H       -1.4514560        6.7144370       -2.6945310
 H       -3.6846290        7.1012710       -3.7822520
 H       -3.8849630        7.0131240       -2.0173780
 H       -4.3320430        5.6232050       -3.0340460
 C       -0.7354080        3.9166610        1.0612390
 C       -0.5932460        5.3839600        1.5685370
 H       -1.8076180        3.7345550        0.9481000
 H       -0.3999410        3.2366410        1.8550710
 C       -1.6675320        5.7280140        2.6334590
 H        0.3913970        5.5538070        2.0201660
 H       -0.6789680        6.1019100        0.7400750
 C       -1.5078460        7.1483450        3.2195580
 H       -1.6184340        4.9899140        3.4534980
 H       -2.6735800        5.6297170        2.1907510
 H       -2.2878530        7.3583640        3.9680570
 H       -1.5837610        7.9170020        2.4335560
 H       -0.5303730        7.2708990        3.7130100
 C        4.2196250        0.1669890       -0.2940450
 C        4.4429240       -1.3730730       -0.3595340
 C        5.5384070        0.9005780       -0.6747010
 H        3.4715050        0.4083180       -1.0556110
 H        4.6844600       -1.6683480       -1.3907330
 H        3.5443530       -1.9259440       -0.0565520
 H        5.2712230       -1.6939540        0.2896540
 H        6.3539100        0.6572580        0.0227990
 H        5.4193480        1.9917600       -0.6802470
 H        5.8580830        0.5890190       -1.6810590
 H        1.0236680        1.9574090        2.7990760
 H        4.6809180        0.3004420        4.3810540
 C       -3.2758430        1.4185130        0.9569090
 C       -3.6689820        0.0170850        1.5110030
 C       -4.3342380        2.4712840        1.3998410
 H       -2.3209130        1.6751430        1.4277920
 H       -4.6011690       -0.3557510        1.0611280
 H       -3.8260100        0.0825880        2.5987110
 H       -2.8771280       -0.7209470        1.3402350
 H       -4.1245180        3.4701370        0.9926950
 H       -4.3523850        2.5466220        2.4979030
 H       -5.3455770        2.1874170        1.0737250
 H       -0.7479410        1.5899350       -3.1088820
