103
Mol_000174_2D_DFT last geometry from G09 out file
 Ru        0.2535520       -0.1998350       -0.9312930
 C       -1.2254360       -1.1491810       -1.3775870
 Cl        0.7084760       -1.2236570        1.2100530
 Cl        0.8431940        0.5154360       -3.1890520
 H       -2.2775600       -0.8628080       -1.3517290
 H       -1.0011980       -2.1746670       -1.7467050
 C       -0.3114700        1.5838120       -0.3818670
 N        0.6610140        2.5034400        0.0193620
 N       -1.5271390        2.2331710       -0.4704700
 C        1.8207660        2.1547260        0.8503490
 C        0.1594450        3.9521760       -0.2246420
 C        3.1511500        1.9313320        0.3724870
 C        1.5695840        2.0670960        2.2448740
 C        4.1535380        1.6740840        1.3458930
 C        3.9138180        1.6069560        2.7335830
 H        5.1723380        1.5051980        0.9961220
 C        2.5842780        1.8040470        3.1740220
 H        2.3389710        1.7353090        4.2354510
 C       -1.4301350        3.7250110       -0.0218040
 C       -2.7097510        1.6519210       -1.0920490
 C       -3.7397740        0.9732070       -0.3654560
 C       -2.8076220        1.7620340       -2.5021950
 C       -4.8498890        0.4960960       -1.1130280
 C       -4.9729650        0.6285630       -2.5137500
 H       -5.6500340       -0.0145210       -0.5758760
 C       -3.9151310        1.2655180       -3.2063530
 H       -3.9502370        1.3665120       -4.2925640
 C       -6.1749750        0.0583730       -3.2578200
 C       -5.9519430       -1.3951120       -3.7602920
 H       -6.4114390        0.6977000       -4.1237200
 H       -7.0609420        0.0743510       -2.6030010
 H       -5.0949630       -1.4513790       -4.4480350
 H       -6.8427810       -1.7593450       -4.2955730
 H       -5.7550220       -2.0798940       -2.9216580
 C        0.5981320        4.2776490       -1.7085070
 C        0.4572780        5.7039910       -2.3164590
 H        0.1167610        3.5554250       -2.3809040
 H        1.6638750        4.0271540       -1.7432150
 C        1.3021160        5.8436450       -3.6066360
 H        0.7757730        6.4761410       -1.6011950
 H       -0.5859750        5.9310210       -2.5682630
 H        1.0121360        5.0912820       -4.3570000
 H        1.1673290        6.8387580       -4.0595320
 H        2.3763190        5.7103810       -3.4034180
 C        0.7295020        4.9953730        0.7831760
 C        2.2054590        5.4652460        0.6902700
 H        0.5760690        4.6246190        1.8016360
 H        0.0993080        5.8909780        0.6807900
 C        2.4909630        6.5996840        1.7027060
 H        2.4449490        5.8282100       -0.3177760
 H        2.8858690        4.6331450        0.8977890
 H        1.8587220        7.4828950        1.5140310
 H        2.3075470        6.2703050        2.7379490
 H        3.5418180        6.9227220        1.6397730
 C       -2.2790170        4.6785320       -0.9228840
 C       -3.8236560        4.7456890       -0.7699140
 H       -2.0628130        4.4560000       -1.9730160
 H       -1.8951400        5.6926120       -0.7393970
 C       -4.4303950        5.7956980       -1.7309380
 H       -4.1080550        5.0110430        0.2573060
 H       -4.2804070        3.7728420       -0.9810540
 H       -4.0296290        6.8041000       -1.5369940
 H       -4.2185840        5.5475820       -2.7830820
 H       -5.5244390        5.8441450       -1.6153970
 C       -1.9381660        3.7708050        1.4702450
 C       -2.1308040        5.1168120        2.2324610
 H       -1.3041330        3.1124670        2.0785860
 H       -2.9215640        3.2936130        1.4446060
 C       -3.0154840        4.9319620        3.4893710
 H       -2.5920510        5.8759370        1.5850220
 H       -1.1698980        5.5333330        2.5552410
 H       -3.1064170        5.8784240        4.0452800
 H       -4.0319370        4.5992970        3.2278450
 H       -2.5862410        4.1838950        4.1750840
 C        3.5729090        1.9117300       -1.1072890
 C        4.1997710        0.5426970       -1.5051060
 C        4.5604420        3.0592920       -1.4684870
 H        2.6769790        2.0362390       -1.7236370
 H        3.5480480       -0.2961370       -1.2285740
 H        5.1765460        0.3850700       -1.0238740
 H        4.3469840        0.5052980       -2.5941560
 H        4.7925360        3.0238620       -2.5441970
 H        5.5098710        2.9644000       -0.9204610
 H        4.1445610        4.0502370       -1.2448200
 H        0.5486100        2.1847140        2.5997720
 C        5.0322450        1.2753780        3.7137950
 C        5.1602150       -0.2477720        3.9947900
 H        4.8572200        1.7972330        4.6688900
 H        5.9938620        1.6457340        3.3232650
 H        4.2300870       -0.6530010        4.4197720
 H        5.9771870       -0.4419580        4.7076890
 H        5.3717060       -0.8046550        3.0699760
 C       -3.7075170        0.6901280        1.1492480
 C       -3.6194240       -0.8306980        1.4725890
 C       -4.9290870        1.3118600        1.8880630
 H       -2.7966930        1.1402010        1.5584290
 H       -2.6924950       -1.2713750        1.0882300
 H       -4.4728860       -1.3886740        1.0594930
 H       -3.6223890       -0.9757950        2.5640140
 H       -5.8651990        0.8008750        1.6190650
 H       -5.0572730        2.3783760        1.6560050
 H       -4.8010310        1.2118680        2.9768980
 H       -1.9840220        2.2169950       -3.0476370
