107
Mol_000200_2D_DFT last geometry from G09 out file
 Ru        0.0297060       -0.7431430       -0.0578970
 C       -0.9629270       -1.5543130       -1.3415080
 Cl       -1.2375090       -1.2387660        1.9466300
 Cl        2.0974020       -0.8044280       -1.3324510
 H       -1.5322640       -1.0997700       -2.1559110
 H       -0.8978850       -2.6638930       -1.3471600
 C       -0.5108530        1.1433540       -0.1170070
 N        0.2105510        2.1036690        0.5813010
 N       -1.5849450        1.7725620       -0.7203500
 C        1.4069620        1.7781220        1.3478860
 C       -0.1955540        3.5364510        0.1369810
 C        2.6383170        1.7092920        0.6533860
 C        1.4096090        1.4871870        2.7562550
 C        3.8507010        1.4176580        1.3012290
 C        3.8807830        1.1399270        2.6842780
 H        4.7679940        1.3768430        0.7118540
 C        2.6480170        1.1641170        3.3728290
 H        2.6542220        0.9364860        4.4377640
 C       -1.7482850        3.2382830       -0.2027610
 C       -2.6455870        1.0651490       -1.4039620
 C       -3.5720360        0.3475390       -0.6101580
 C       -2.8257360        1.0731790       -2.8278400
 C       -4.6672310       -0.3284240       -1.1755650
 C       -4.8897370       -0.3065490       -2.5720320
 H       -5.3481400       -0.8755680       -0.5209350
 C       -3.9596750        0.4022550       -3.3636540
 H       -4.1110210        0.4103340       -4.4419140
 C       -6.0574230       -1.0549010       -3.2027910
 C       -5.7366820       -2.5445690       -3.5070760
 H       -6.3575330       -0.5582580       -4.1393310
 H       -6.9291540       -1.0118490       -2.5303630
 H       -5.4676390       -3.0896450       -2.5900720
 H       -4.8957110       -2.6357260       -4.2109560
 H       -6.6109370       -3.0421480       -3.9545600
 C        0.7026600        3.8653650       -1.1215480
 C        0.6992260        5.2795620       -1.7738220
 H        1.7318720        3.6995900       -0.7827350
 H        0.5105510        3.1145830       -1.8963140
 C        1.9616550        5.4931300       -2.6495520
 H       -0.1804470        5.4204080       -2.4144680
 H        0.6592510        6.0743840       -1.0141270
 C        1.9743560        6.8524640       -3.3834830
 H        2.0296630        4.6776000       -3.3900160
 H        2.8644450        5.4132080       -2.0185490
 H        1.1098860        6.9496560       -4.0600750
 H        2.8866370        6.9677400       -3.9899550
 H        1.9375430        7.6932930       -2.6717380
 C       -0.0150220        4.5999230        1.2604620
 C        1.4049820        5.1156640        1.6216730
 H       -0.6105830        5.4743220        0.9572090
 H       -0.4606650        4.2051710        2.1746680
 C        1.3341360        6.2374830        2.6897640
 H        2.0244430        4.3011910        2.0173610
 H        1.9308910        5.5085900        0.7404850
 C        2.7227640        6.7733780        3.1034670
 H        0.8095490        5.8574960        3.5836370
 H        0.7227080        7.0735540        2.3048380
 H        3.3483040        5.9720510        3.5285360
 H        2.6338660        7.5667680        3.8625600
 H        3.2627290        7.1952750        2.2403180
 C       -2.3112710        4.2097790       -1.2863540
 C       -3.8286490        4.2263020       -1.6207890
 H       -2.0504650        5.2236600       -0.9482470
 H       -1.7607160        4.0486020       -2.2175620
 C       -4.1613920        5.3193220       -2.6694880
 H       -4.1617560        3.2563500       -2.0082800
 H       -4.4275320        4.4201130       -0.7226270
 C       -5.6621280        5.3790820       -3.0319330
 H       -3.5723710        5.1445750       -3.5875010
 H       -3.8426160        6.3047190       -2.2854230
 H       -6.0117850        4.4215770       -3.4507540
 H       -5.8608730        6.1640220       -3.7786690
 H       -6.2783340        5.5978950       -2.1451890
 C       -2.7088540        3.1398810        1.0464500
 C       -3.2169190        4.4103510        1.7896250
 H       -3.5977850        2.6131860        0.6808820
 H       -2.2370520        2.4869000        1.7866540
 C       -4.3100290        4.0808820        2.8473150
 H       -2.3938560        4.8952030        2.3241770
 H       -3.6168980        5.1602660        1.0900480
 C       -5.7002900        3.6949970        2.2895710
 H       -4.4330280        4.9680390        3.4934740
 H       -3.9391840        3.2750700        3.5030280
 H       -6.4100240        3.5154050        3.1128890
 H       -5.6674850        2.7780520        1.6823010
 H       -6.1168290        4.5001330        1.6623750
 H        2.6391890        1.8413090       -0.4221430
 C        0.2049180        1.5375780        3.6767470
 C        0.1355110        0.5517000        4.8459640
 O       -0.7052390        2.3969530        3.5409830
 H        0.7265500        0.9262310        5.6984000
 H       -0.9086580        0.4786590        5.1701180
 H        0.5036840       -0.4434020        4.5725910
 C        5.1745440        0.7648510        3.3949510
 C        5.4698280       -0.7603330        3.3494480
 H        5.1311910        1.0873220        4.4477020
 H        6.0188300        1.3021990        2.9342550
 H        4.6693230       -1.3355780        3.8383540
 H        6.4161780       -0.9843360        3.8659260
 H        5.5523600       -1.1182620        2.3126140
 H       -3.4044630        0.2939290        0.4617280
 C       -1.8454240        1.6842960       -3.8055110
 C       -2.3390280        2.0819680       -5.2043390
 O       -0.6301590        1.8463500       -3.5191940
 H       -3.3140100        2.5878630       -5.1834830
 H       -1.5887800        2.7406010       -5.6574130
 H       -2.4326240        1.1931370       -5.8491040
