63
Mol_000044_2D_DFT last geometry from G09 out file
 Ru        0.2532310       -0.2547530        1.0790700
 C       -1.3912960       -0.8930170        0.6436820
 Cl       -0.1712280        0.1908640        3.4343010
 Cl        1.5809500       -1.2261410       -0.6767350
 H       -2.2326040       -0.3749420        0.1742140
 H       -1.5561520       -1.9600700        0.9063340
 C        0.2012600        1.6102440        0.5224140
 N        1.3009400        2.4538140        0.6951630
 N       -0.8684350        2.4022950        0.1212050
 C        2.6400850        2.0076160        1.0556360
 C        0.8590420        3.9156220        0.8175960
 C        3.7210190        2.0237100        0.1128690
 C        2.8736770        1.5955710        2.3904720
 C        4.9940490        1.5933890        0.5770020
 C        5.2128860        1.1609340        1.8983450
 H        5.8197560        1.5684360       -0.1339960
 C        4.1444250        1.1632410        2.8146690
 H        4.2866940        0.8314160        3.8439220
 C       -0.4771260        3.8408740        0.0335900
 H       -1.2509650        4.4762860        0.4777500
 H       -0.3459680        4.1212110       -1.0242760
 C       -2.0281860        1.9981770       -0.6401330
 C       -1.8133790        1.3312830       -1.8723230
 C       -3.3477420        2.3777100       -0.2446730
 C       -2.8891420        1.0114240       -2.7201160
 C       -4.1984360        1.3853070       -2.3491360
 H       -2.7048260        0.4857870       -3.6580060
 C       -4.4128950        2.0589060       -1.1319240
 H       -5.4295190        2.3197820       -0.8372880
 H       -0.7976020        1.0570400       -2.1516630
 C       -3.6731770        3.0696590        1.0454450
 C       -4.4982180        4.2270300        1.0425890
 C       -3.2258570        2.5639910        2.2942500
 C       -4.8619930        4.8616380        2.2483040
 H       -4.8435660        4.6402850        0.0934270
 C       -4.4133440        4.3465120        3.4841430
 H       -5.4917580        5.7529430        2.2218690
 C       -3.5954020        3.1956140        3.4994130
 H       -4.6978830        4.8327260        4.4189960
 H       -3.2464780        2.7813850        4.4466280
 H       -2.6014910        1.6750190        2.3332920
 C        0.6217710        4.2650740        2.3148930
 H        0.2129870        5.2835520        2.3942090
 H        1.5640580        4.2366090        2.8772620
 H       -0.0847550        3.5707590        2.7838880
 C        1.8309540        4.9306780        0.1869810
 H        2.7956770        4.9404820        0.7100430
 H        1.3963120        5.9374720        0.2769490
 H        2.0091850        4.7253580       -0.8724490
 H       -5.0447630        1.1483540       -2.9955880
 C        3.6390440        2.4745770       -1.3184880
 C        4.5692370        3.4406840       -1.7916430
 C        2.7137100        1.9308310       -2.2458950
 C        4.5644130        3.8631880       -3.1363410
 H        5.2881210        3.8788560       -1.0974420
 C        3.6314590        3.3204450       -4.0464640
 H        5.2854200        4.6117770       -3.4704180
 C        2.7126730        2.3495600       -3.5930700
 H        3.6278830        3.6409250       -5.0898570
 H        2.0032900        1.9017350       -4.2918470
 H        2.0352030        1.1457660       -1.9268700
 H        2.0477850        1.6023840        3.0956320
 H        6.2039890        0.8196130        2.2011940
