81
Mol_000367_2D_DFT last geometry from G09 out file
 Ru        0.2890130        0.2936490       -0.8236280
 C       -1.3251030       -0.5287100       -0.9575000
 Cl        0.9437530       -0.5827880        1.3312700
 Cl        0.7182750        0.5662320       -3.1918870
 H       -2.3309790       -0.1187880       -0.8495440
 H       -1.2591400       -1.6099090       -1.2054890
 C       -0.0142940        2.1774910       -0.4237500
 N        1.0856290        3.0081390       -0.1316150
 N       -1.1456740        2.9673480       -0.5642600
 C        0.7413330        4.4772060       -0.3903400
 C        2.0448590        2.6941750        0.9525380
 C       -0.8230130        4.4641420       -0.5539430
 H        1.0059970        5.0209680        0.5238340
 H       -1.0828170        4.8229670       -1.5575090
 C        1.5133430        2.8173740        2.2627100
 C        3.4289710        2.3638750        0.7930240
 C        2.3024040        2.6703780        3.4136980
 C        3.6749500        2.3919750        3.2698470
 H        1.8478130        2.7587240        4.4014840
 C        4.2083480        2.2367110        1.9801950
 H        5.2593320        1.9700770        1.8699280
 C       -2.3765360        2.5013550       -1.2016050
 C       -2.4090450        2.5735120       -2.6151110
 C       -3.5216430        2.0293170       -0.4802780
 C       -3.5486120        2.2029930       -3.3496800
 C       -4.6884480        1.7451410       -2.6591900
 H       -3.5348000        2.2524280       -4.4389950
 C       -4.6601520        1.6599900       -1.2560090
 H       -5.5319310        1.2664530       -0.7340950
 H       -1.5132530        2.8935070       -3.1420570
 C       -3.6521430        1.8736160        1.0111490
 C       -4.8397810        2.3323010        1.6490050
 C       -2.6848400        1.2148940        1.8150950
 C       -5.0516420        2.1434030        3.0287550
 H       -5.5961440        2.8589090        1.0653840
 C       -4.0824660        1.4790520        3.8115590
 H       -5.9693420        2.5139710        3.4894230
 C       -2.9007510        1.0171470        3.1948180
 H       -4.2468890        1.3230620        4.8791750
 H       -2.1430420        0.4913670        3.7779230
 H       -1.7704350        0.8295250        1.3772060
 C        1.5859370        5.1425660       -1.5849410
 C        2.9679660        5.5742140       -1.0109810
 C        1.7784780        4.1668420       -2.7757310
 C        0.9365050        6.4419340       -2.1568890
 H        2.8495650        6.3335190       -0.2212270
 H        3.5883120        6.0151210       -1.8055500
 H        3.5190520        4.7323540       -0.5928770
 H        0.8227220        3.9067270       -3.2508950
 H        2.2601370        3.2348210       -2.4774690
 H        2.4053720        4.6438780       -3.5440270
 H        1.5828050        6.8137740       -2.9657290
 H        0.8599260        7.2414870       -1.4117740
 H       -0.0556670        6.2773840       -2.5986920
 H       -5.5823480        1.4382500       -3.2043130
 C       -1.6599700        5.3770800        0.4607180
 C       -1.5999440        4.8797540        1.9293540
 C       -1.1259170        6.8437730        0.4469190
 C       -3.1465270        5.4710700       -0.0043140
 H       -2.3003800        5.4654490        2.5430780
 H       -0.6005050        5.0199300        2.3625810
 H       -1.8807250        3.8281140        2.0217900
 H       -1.2559200        7.3228260       -0.5314930
 H       -0.0707190        6.9216400        0.7375150
 H       -1.7041010        7.4286720        1.1774590
 H       -3.6611380        6.2553050        0.5710510
 H       -3.6959500        4.5421360        0.1488230
 H       -3.2196180        5.7415540       -1.0689320
 H        0.4521850        3.0137350        2.3742490
 C        4.1781870        2.0684070       -0.4788610
 C        5.3498850        2.8063920       -0.8022260
 C        3.8524460        0.9576030       -1.2931520
 C        6.1372670        2.4720750       -1.9213270
 H        5.6434500        3.6512320       -0.1770800
 C        5.7800670        1.3776670       -2.7393310
 H        7.0267820        3.0617670       -2.1511790
 C        4.6361520        0.6199240       -2.4153480
 H        6.3872730        1.1160080       -3.6076260
 H        4.3499530       -0.2357880       -3.0279210
 H        3.0150920        0.3168590       -1.0302300
 H        4.3160080        2.2697650        4.1441460
