101
M00000346_2D_DFT last geometry from G09 out file
 Ru        0.2665780        0.2550760       -0.4434190
 C       -1.2544710       -0.5938180       -0.9455500
 Cl        0.2405240       -0.4343680        1.8894210
 Cl        1.1549290        0.3989310       -2.7179420
 H       -2.2273370       -0.2085580       -1.2520680
 H       -1.1323270       -1.7001380       -0.9862910
 C       -0.0697880        2.1907440       -0.3334850
 N        0.9632800        3.0186330        0.1090200
 N       -1.1258140        2.9705490       -0.7617350
 C        0.6700110        4.5033090       -0.1550410
 C        1.9797540        2.5349950        1.0657100
 C       -0.8213160        4.4789810       -0.7262760
 H        0.6797700        5.0136720        0.8154830
 H       -0.7851520        4.7942440       -1.7761390
 C        1.7635080        2.7264870        2.4702670
 C        3.1543130        1.7915190        0.6897360
 C        2.6974660        2.2552770        3.4137010
 C        3.8612380        1.5297560        3.0569320
 H        2.4599770        2.4080410        4.4628300
 C        4.0405760        1.2927740        1.6699500
 H        4.8801130        0.7027490        1.3230920
 C       -2.3268270        2.4257020       -1.3740690
 C       -2.5229420        2.4979990       -2.7900010
 C       -3.3443750        1.7947540       -0.5872210
 C       -3.7358850        2.0461630       -3.3494270
 C       -4.7838420        1.4743660       -2.5740740
 H       -3.8531020        2.1241030       -4.4243860
 C       -4.5338510        1.3246610       -1.1820470
 H       -5.2528990        0.8302670       -0.5397350
 C       -1.4467200        3.0612860       -3.7217860
 C       -1.3803450        2.4608670       -5.1451460
 H       -0.4695930        2.9091430       -3.2567160
 H       -1.5903610        4.1532620       -3.8162570
 H       -1.2705440        1.3682800       -5.1070320
 H       -0.4984440        2.8645250       -5.6656630
 H       -2.2596880        2.7065970       -5.7596890
 C       -3.2228360        1.5790260        0.8980930
 O       -3.8158950        0.3685910        1.2763020
 O       -2.7051310        2.3482280        1.7331160
 C       -3.7208940        0.0134840        2.7130230
 H       -4.2238110        0.7707020        3.3309230
 H       -4.2272850       -0.9551550        2.7882830
 H       -2.6667020       -0.0698880        3.0021950
 C        1.7854900        5.2357200       -1.0466510
 C        3.1467020        5.2167840       -0.2820520
 C        1.9279890        4.6101070       -2.4612100
 C        1.4761240        6.7500030       -1.2493070
 H        3.0340500        5.6048430        0.7428940
 H        3.8623920        5.8689550       -0.8047920
 H        3.5932600        4.2271140       -0.2396200
 H        2.0113300        3.5236540       -2.4320550
 H        2.8408260        4.9904850       -2.9419420
 H        1.0819120        4.8894150       -3.1060310
 H        2.3227740        7.1978790       -1.7904320
 H        1.3794700        7.2902300       -0.2960380
 H        0.5831010        6.9286800       -1.8540560
 N       -5.9881010        1.0561380       -3.1510120
 C       -6.1893270        1.1563560       -4.6031410
 C       -7.0289660        0.4308970       -2.3224690
 H       -5.4637870        0.5435890       -5.1676960
 H       -6.1035200        2.1985700       -4.9555110
 H       -7.1948430        0.8024970       -4.8579550
 H       -7.9101920        0.2210190       -2.9394900
 H       -7.3472020        1.0956460       -1.5018010
 H       -6.6926820       -0.5233010       -1.8784070
 C       -1.9271760        5.4658140       -0.0626270
 C       -1.9540190        5.4943720        1.4882510
 C       -1.6696500        6.9327230       -0.5352270
 C       -3.3723570        5.1446430       -0.5599090
 H       -2.7537570        6.1770230        1.8156880
 H       -1.0184820        5.8817830        1.9096520
 H       -2.1643910        4.5098400        1.9076540
 H       -0.7553140        7.3590030       -0.1168010
 H       -2.5034850        7.5597080       -0.1872820
 H       -1.6330140        7.0201050       -1.6313390
 H       -3.7808440        4.2414470       -0.1068040
 H       -3.4300740        5.0461560       -1.6522390
 H       -4.0312700        5.9777470       -0.2722020
 C        0.5004790        3.3421370        3.0677270
 C        0.7440100        4.6266370        3.9029080
 H        0.0422730        2.5827840        3.7211470
 H       -0.2407000        3.5331460        2.2960620
 H       -0.2087990        5.0056500        4.3025150
 H        1.2041720        5.4264610        3.3027630
 H        1.4089340        4.4380650        4.7581780
 C        3.6744560        1.5214530       -0.7061130
 O        4.0643960        0.1835960       -0.8292670
 O        3.8788340        2.3583690       -1.6078460
 C        4.7215170       -0.1955140       -2.1012580
 H        4.9203610       -1.2676630       -1.9954190
 H        4.0453280       -0.0018560       -2.9408450
 H        5.6560270        0.3693700       -2.2319420
 N        4.7680160        1.0515570        4.0090910
 C        4.5047630        1.2445140        5.4414150
 C        5.8874320        0.1916080        3.5978500
 H        4.3879600        2.3128810        5.6881020
 H        5.3521940        0.8632850        6.0231840
 H        3.5953360        0.7131840        5.7776530
 H        5.5417250       -0.7438920        3.1226530
 H        6.4830450       -0.0776190        4.4779010
 H        6.5563110        0.7087850        2.8895200
