71
M00000347_2D_DFT last geometry from G09 out file
 Ru        0.5822520        0.2994510       -0.8185510
 C       -0.9366270       -0.6663400       -0.4696180
 Cl        1.5565760       -0.6636630        1.2562050
 Cl        0.3573520        0.5303260       -3.2347130
 H       -1.8293650       -0.3845410        0.0895890
 H       -0.8921090       -1.7403690       -0.7517000
 C        0.1119090        2.1101980       -0.3145130
 N        1.0774040        3.0047860        0.2009460
 N       -1.0232460        2.8780160       -0.5947880
 C        0.7162610        4.4603840       -0.0363940
 C        2.1212420        2.6543400        1.1369700
 C       -0.8054340        4.3851960       -0.4354990
 H        0.8156370        4.9967630        0.9136670
 H       -0.9214390        4.8147410       -1.4367030
 C        1.9679970        3.0125490        2.4983340
 C        3.3714450        2.0311120        0.8026310
 C        2.9388470        2.8283110        3.4913110
 C        4.1654990        2.2461070        3.1284010
 H        2.7151450        3.1242040        4.5153580
 C        4.3714570        1.8606580        1.7944670
 H        5.3075140        1.3759080        1.5260540
 C       -2.1717540        2.3752710       -1.3151560
 C       -2.2811720        2.6636120       -2.6979370
 C       -3.2733820        1.6562320       -0.7270380
 C       -3.3133830        2.2118210       -3.5287240
 C       -4.3409100        1.4465710       -2.9533470
 H       -3.2810590        2.4428060       -4.5922410
 C       -4.3232850        1.2002630       -1.5702560
 H       -5.1425810        0.6324840       -1.1367460
 F       -1.3020160        3.4598530       -3.3067590
 C       -3.4186970        1.4098740        0.7619090
 C       -4.8172830        1.1241900        1.3255070
 O       -2.4408540        1.4482950        1.5528240
 H       -5.5826030        1.8088420        0.9340770
 H       -5.1339640        0.0949270        1.0906420
 H       -4.7652090        1.2165420        2.4163810
 C        1.7000300        5.1815420       -1.0822040
 C        3.0993850        5.3803810       -0.4195520
 C        1.8595300        4.3918170       -2.4105200
 C        1.1975330        6.6125860       -1.4461860
 H        3.6374720        4.4402330       -0.2744000
 H        3.0197510        5.8817280        0.5581850
 H        3.7237100        6.0164480       -1.0645910
 H        2.6275360        4.8783770       -3.0313560
 H        0.9319820        4.3747200       -2.9929590
 H        2.1613230        3.3541310       -2.2532500
 H        1.9080780        7.0588910       -2.1576200
 H        1.1482180        7.2761410       -0.5729900
 H        0.2171390        6.6081110       -1.9375920
 H       -5.1487780        1.0581810       -3.5733010
 C       -1.8522890        5.1776520        0.4865640
 C       -1.9320060        4.6816550        1.9565790
 C       -1.4694480        6.6908930        0.5329050
 C       -3.2753500        5.1334090       -0.1576080
 H       -1.0861530        5.0454290        2.5502520
 H       -1.9479830        3.5935990        2.0351820
 H       -2.8483100        5.0751480        2.4236890
 H       -2.1936400        7.2114190        1.1768530
 H       -1.5066730        7.1658280       -0.4565690
 H       -0.4766370        6.8623040        0.9653420
 H       -3.9167870        5.8788740        0.3353890
 H       -3.7660330        4.1639790       -0.0435020
 H       -3.2502670        5.3816050       -1.2297890
 F        0.7620650        3.5947940        2.9135420
 C        3.6458530        1.4858330       -0.5567200
 C        5.0663020        1.4309950       -1.1011210
 O        2.7110810        1.0282460       -1.2787800
 H        5.6611340        2.3116370       -0.8257410
 H        5.5821240        0.5361960       -0.7145910
 H        5.0179740        1.3354250       -2.1921620
 H        4.9382700        2.0807750        3.8787280
