89
Mol_000298_2D_DFT last geometry from G09 out file
 Ru        0.2331710       -0.0168010       -0.9266600
 C       -1.4405230       -0.7015820       -1.0964220
 Cl        0.7966790       -0.9115850        1.2350060
 Cl        0.7473590        0.1293780       -3.2926120
 H       -2.4089920       -0.2051460       -1.0096130
 H       -1.4655660       -1.7855270       -1.3385000
 C        0.0444940        1.8933100       -0.5778700
 N        1.2029620        2.6653350       -0.3233930
 N       -1.0472590        2.7442110       -0.6861210
 C        0.9274710        4.1527370       -0.5952060
 C        2.1053810        2.3247650        0.7987560
 C       -0.6440840        4.2284970       -0.6620520
 H        1.2895450        4.6950480        0.2857590
 H       -0.9382610        4.6161000       -1.6452090
 C        1.5001480        2.3612300        2.0797450
 C        3.5217670        2.0447070        0.7133300
 C        2.2101120        2.2218260        3.2775010
 C        3.6063100        2.0213600        3.2094290
 H        1.6994960        2.2617150        4.2358760
 C        4.2232800        1.9197950        1.9484010
 H        5.2861670        1.7011380        1.9405810
 C       -2.3062820        2.3671640       -1.3274020
 C       -2.3103820        2.3859900       -2.7416290
 C       -3.5202600        2.0394220       -0.6166450
 C       -3.4687910        2.1568860       -3.4968960
 C       -4.6785360        1.8840900       -2.8189840
 H       -3.4458650        2.1820250       -4.5844250
 C       -4.6840970        1.8146510       -1.4102680
 H       -5.6179250        1.5581740       -0.9228750
 H       -1.3720660        2.5754430       -3.2551070
 N       -3.6345700        1.9897490        0.8004110
 C       -4.9689750        2.1606660        1.4065350
 C       -2.7679230        1.1006440        1.6074640
 H       -4.8365100        2.4317760        2.4641630
 H       -5.5911390        1.2435420        1.3745800
 H       -5.5201280        2.9729790        0.9162980
 H       -2.6658410        1.5040300        2.6257000
 H       -1.7758090        1.0007260        1.1746610
 H       -3.2016090        0.0847050        1.6922500
 C        1.7059070        4.7541800       -1.8598810
 C        1.5391970        3.8851330       -3.1342940
 C        1.2175170        6.1940170       -2.2151350
 C        3.2148230        4.8881990       -1.5057590
 H        0.5020430        3.8846790       -3.4983360
 H        1.8414880        2.8478710       -2.9801080
 H        2.1586460        4.3006320       -3.9433560
 H        1.3826510        6.9053760       -1.3970220
 H        0.1605330        6.2358510       -2.5096320
 H        1.8014080        6.5486220       -3.0773270
 H        3.6729390        3.9185360       -1.2979390
 H        3.3600230        5.5368140       -0.6264380
 H        3.7547060        5.3499220       -2.3465210
 C       -5.9119680        1.6477880       -3.6333100
 O       -7.0275010        1.3576120       -2.8377370
 O       -5.9703660        1.6982090       -4.8829220
 C       -8.2956990        1.1030850       -3.5552290
 H       -9.0235090        0.8869030       -2.7655280
 H       -8.5941380        1.9884370       -4.1334190
 H       -8.1870600        0.2469880       -4.2351200
 C       -1.3858620        5.1681280        0.4045420
 C       -1.3360940        4.6262240        1.8568230
 C       -0.7466780        6.5928830        0.4242750
 C       -2.8730460        5.3764660       -0.0180500
 H       -0.3184290        4.6501530        2.2676280
 H       -1.7257230        3.6082000        1.9194270
 H       -1.9597290        5.2625690        2.5026440
 H       -1.2684260        7.1933710        1.1841360
 H       -0.8584750        7.1132050       -0.5345220
 H        0.3159710        6.5851880        0.6964590
 H       -3.4708950        4.4774690        0.1337410
 H       -2.9574460        5.6793740       -1.0728990
 H       -3.3183450        6.1779780        0.5905440
 H        0.4270110        2.5051780        2.1268820
 N        4.2611030        1.9211340       -0.4910780
 C        5.7293310        2.0588190       -0.4435170
 C        3.8109290        0.9819080       -1.5368640
 H        6.0922490        2.2354390       -1.4661750
 H        6.2462190        1.1589110       -0.0556130
 H        6.0197690        2.9204010        0.1711470
 H        4.2920280        1.2338200       -2.4923340
 H        2.7383880        1.0527610       -1.6937750
 H        4.0665640       -0.0655430       -1.2852290
 C        4.4681060        1.8701240        4.4215720
 O        3.7304690        1.9697240        5.6064180
 O        5.7073160        1.6799250        4.4132840
 C        4.4896430        1.8179930        6.8657150
 H        3.7406440        1.9323350        7.6569320
 H        4.9615000        0.8268030        6.9122150
 H        5.2660130        2.5917280        6.9435270
