79
Mol_000297_2D_DFT last geometry from G09 out file
 Ru        0.3278610        0.0456610       -0.1792660
 C       -1.1668690       -0.7990540       -0.7611800
 Cl        0.0836100       -0.4010990        2.1865900
 Cl        1.4521450       -0.0968660       -2.3487970
 H       -2.0907450       -0.3960080       -1.1786930
 H       -1.0813280       -1.9079480       -0.7253920
 C       -0.0049990        1.9814610       -0.1969960
 N        0.9783500        2.8539250        0.2852890
 N       -1.0488350        2.7295360       -0.7181780
 C        0.6784960        4.3094360       -0.0654680
 C        1.9683250        2.4757930        1.3206420
 C       -0.7737110        4.2375040       -0.6949270
 H        0.6455310        4.8731350        0.8755350
 H       -0.7057380        4.5562130       -1.7420000
 C        1.6447950        2.7160350        2.6977290
 C        3.2355540        1.8903770        1.0030850
 C        2.5857550        2.4033730        3.7009510
 C        3.8396490        1.8265170        3.4124200
 H        2.3114120        2.5856140        4.7417260
 C        4.1276280        1.5752960        2.0600940
 H        5.0846450        1.1206180        1.7964220
 C       -2.2021890        2.1752060       -1.4270110
 C       -2.2368660        2.2082980       -2.8584430
 C       -3.3107000        1.6287180       -0.7076930
 C       -3.4045130        1.7769430       -3.5268860
 C       -4.5421310        1.3005970       -2.8385250
 H       -3.4159080        1.8038830       -4.6183190
 C       -4.4564850        1.2168150       -1.4348780
 H       -5.2982410        0.8057870       -0.8737570
 C       -1.0618010        2.6564600       -3.7098840
 H       -0.1066690        2.3449480       -3.2804820
 H       -1.0445350        3.7499470       -3.8463320
 H       -1.1315350        2.2126870       -4.7117710
 C       -3.3463710        1.3884550        0.7953860
 H       -4.0603760        2.0652380        1.2896590
 H       -2.3724020        1.4882200        1.2752180
 H       -3.6928830        0.3642470        0.9973890
 C        1.8087180        5.0133950       -0.9685010
 C        3.0964750        5.2173980       -0.1107630
 C        2.1268780        4.2167540       -2.2647890
 C        1.3984440        6.4470110       -1.4281630
 H        2.8754390        5.7896040        0.8041030
 H        3.8344550        5.7946200       -0.6879390
 H        3.5688060        4.2828090        0.1897000
 H        1.3454060        4.3580130       -3.0224740
 H        2.2336930        3.1466080       -2.0908260
 H        3.0670880        4.5839860       -2.7022420
 H        1.2587650        7.1372910       -0.5871720
 H        0.4926620        6.4552730       -2.0455710
 H        2.2120920        6.8506570       -2.0492270
 C       -5.7920240        0.8724420       -3.5891020
 H       -6.5150950        0.3778030       -2.9264040
 H       -5.5508440        0.1746380       -4.4060190
 H       -6.2980580        1.7394380       -4.0452500
 C       -1.9309760        5.1658250       -0.0629390
 C       -2.3749140        4.7640210        1.3687350
 C       -1.4768700        6.6562210        0.0308100
 C       -3.1769130        5.1760140       -1.0077710
 H       -2.5435360        3.6939490        1.4710160
 H       -3.3168570        5.2777460        1.6132600
 H       -1.6395210        5.0696480        2.1212330
 H       -2.2852850        7.2298220        0.5082670
 H       -1.2980700        7.1065020       -0.9526000
 H       -0.5805850        6.7906690        0.6473860
 H       -3.7335930        4.2363870       -0.9953540
 H       -2.8929180        5.3903420       -2.0492770
 H       -3.8653170        5.9726420       -0.6875370
 C        0.3105540        3.2652820        3.1637580
 H       -0.5167270        2.8868200        2.5614950
 H        0.2881150        4.3657980        3.1339740
 H        0.1233980        2.9686290        4.2035690
 C        3.7667050        1.5971290       -0.3909940
 H        4.5014300        2.3604110       -0.6938830
 H        2.9985560        1.5416580       -1.1571210
 H        4.2896940        0.6307710       -0.3981140
 C        4.8095070        1.4492140        4.5186380
 H        5.8398820        1.3657590        4.1453100
 H        4.5391070        0.4745770        4.9588360
 H        4.8013080        2.1872580        5.3344850
