87
Mol_000151_2D_DFT last geometry from G09 out file
Ru       -0.4122920       -0.0242000        0.5073000
C       -1.4006020       -0.7285770       -0.8434020
Cl       -2.0898020        0.5127960        2.1614990
Cl        1.6830470       -1.0663410       -0.0880580
H       -1.6396860       -0.2846400       -1.8137890
H       -1.7590150       -1.7662640       -0.6743520
C       -0.1618730        1.8234820       -0.0476290
N        0.7844420        2.6500880        0.5549950
N       -0.8563300        2.5902640       -0.9723720
C        0.8001540        4.0394900       -0.0208470
C        1.9626720        2.2391030        1.3135090
C        0.6593480        5.1685140        1.0432540
C       -0.3526750        4.0071710       -1.0684050
H        1.7695720        4.1755420       -0.5258040
C       -0.7650340        5.3378540        1.5300940
H        1.3563140        4.9807340        1.8684150
H        1.0026970        6.1028110        0.5605110
C       -1.7769090        5.2955770        0.6302090
H       -0.9538560        5.4753710        2.5961650
C       -1.4499380        5.0905850       -0.8342080
H       -2.8199600        5.3985730        0.9356080
H       -2.3445450        4.8453040       -1.4194310
H       -1.0533720        6.0309400       -1.2607310
H        0.0502920        4.1568330       -2.0799260
C        2.0242740        2.2600820        2.7372960
C        3.1220510        1.9297290        0.5593150
C        3.2795140        1.9630340        3.3331050
C        4.4428770        1.6557710        2.5959010
H        3.3479020        1.9778480        4.4214470
C        4.3424530        1.6375720        1.1831260
H        5.2092760        1.3752680        0.5742750
C       -2.0313720        2.2214100       -1.7329130
C       -1.9599320        1.9941250       -3.1386150
C       -3.2746050        2.1348360       -1.0621490
C       -3.1692090        1.6926830       -3.8159960
C       -4.4213440        1.6079980       -3.1650020
H       -3.1232730        1.4936150       -4.8890870
C       -4.4514180        1.8268560       -1.7650880
H       -5.3935210        1.7462440       -1.2198280
C        0.8425170        2.6221340        3.6378150
C        0.5402530        1.6089570        4.7772960
H        1.0506880        3.6022080        4.1062960
H       -0.0629470        2.7451920        3.0345340
C       -0.6331740        2.0644790        5.6774390
H        0.2987820        0.6305240        4.3359170
H        1.4327030        1.4630010        5.4074440
C       -0.9553720        1.0606220        6.8065120
H       -1.5309900        2.2075240        5.0544860
H       -0.3942450        3.0483900        6.1216900
H       -1.7916600        1.4170920        7.4289050
H       -0.0872130        0.9062510        7.4681060
H       -1.2409680        0.0810380        6.3921150
H        3.0455450        1.8846290       -0.5265740
C        5.7672910        1.3745150        3.2943900
C        6.6651570        2.6369410        3.4536800
H        6.3305230        0.6139630        2.7290960
H        5.5802190        0.9492180        4.2936160
C        8.0056980        2.3368720        4.1594320
H        6.1120220        3.4037540        4.0217760
H        6.8612060        3.0695680        2.4582660
H        8.5975950        1.5973950        3.5965010
H        8.6144080        3.2497450        4.2558340
H        7.8437360        1.9339290        5.1720890
C       -0.6504440        1.9949080       -3.9248070
C       -0.5011080        3.1634550       -4.9423800
H        0.2046020        1.9985090       -3.2357070
H       -0.5814290        1.0483800       -4.4880350
C        0.8340980        3.1140960       -5.7235350
H       -1.3393980        3.1353940       -5.6580120
H       -0.5819040        4.1303410       -4.4171650
C        0.9896630        4.2643010       -6.7429850
H        0.9103350        2.1470680       -6.2509990
H        1.6774260        3.1410950       -5.0109540
H        1.9493860        4.1926000       -7.2783590
H        0.9563660        5.2476530       -6.2467540
H        0.1851110        4.2427910       -7.4954080
H       -3.2991460        2.2780600        0.0159440
C       -5.6954880        1.3069100       -3.9437540
C       -6.4342620        2.5858520       -4.4386320
H       -6.3883670        0.7254710       -3.3139040
H       -5.4611220        0.6783610       -4.8184060
C       -7.7245160        2.2681670       -5.2254170
H       -5.7503960        3.1754910       -5.0720720
H       -6.6782400        3.2207360       -3.5705590
H       -8.4435380        1.7082740       -4.6062200
H       -8.2201280        3.1930720       -5.5596900
H       -7.5097960        1.6613930       -6.1197420
