68
Mol_000152_2D_DFT last geometry from G09 out file
Ru       -0.3224700       -0.0397790        0.2968310
C       -0.1673910        0.0414560        2.1088670
Cl        1.8034330       -0.7489310       -0.5328090
Cl       -2.5882690       -0.8265650        0.0581550
H       -0.3465040        0.9347520        2.7135460
H        0.0106280       -0.9100270        2.6461170
C       -0.1989200        1.8897230       -0.0264750
N        0.7342500        2.7914500        0.4824350
N       -1.0435120        2.6226770       -0.8600450
C        0.5036620        4.1944130        0.0327700
C        1.9183460        2.5332300        1.2672810
C       -0.6531050        4.1148980       -1.0065890
H        1.4224120        4.5808090       -0.4173350
H        0.2301310        4.8222960        0.8884080
C       -0.1812100        4.4285230       -2.4581870
C       -1.8103380        5.0869490       -0.6281730
C        0.2035000        5.9164160       -2.6582260
H        0.6673340        3.7889770       -2.7157950
H       -1.0024670        4.1992980       -3.1518790
C       -0.9422350        6.8701190       -2.2568880
H        1.1075460        6.1601950       -2.0750040
H        0.4746620        6.0653220       -3.7159410
C       -1.4155790        6.5754480       -0.8172910
H       -1.7881790        6.7436700       -2.9549840
H       -0.6149700        7.9191390       -2.3417110
H       -2.2865880        7.2015590       -0.5632100
H       -0.6205380        6.8525220       -0.1043370
H       -2.1130040        4.9195820        0.4122820
H       -2.6810710        4.8864120       -1.2697680
C        1.9396140        2.7932910        2.6769760
C        3.1390590        2.0972010        0.6514130
C        3.0824710        2.5005640        3.4540780
C        4.2045360        1.9595240        2.8248080
H        3.0976520        2.6810280        4.5255830
C        4.2661870        1.7789640        1.4446260
H        5.1713990        1.4047180        0.9766300
C       -2.2366120        2.1075790       -1.4967830
C       -2.2126390        1.5250080       -2.8036820
C       -3.5176720        2.2612110       -0.8619520
C       -3.4106310        1.1690370       -3.4669280
C       -4.6290140        1.3906530       -2.8307840
H       -3.3919990        0.7124060       -4.4536000
C       -4.7058830        1.9159510       -1.5420640
H       -5.6689550        2.0359530       -1.0562950
C       -3.6716000        2.6890420        0.5763740
O       -4.9574030        3.1959200        0.8049120
O       -2.8205070        2.5988620        1.4790720
C       -5.2826170        3.5485970        2.2063340
H       -6.3145240        3.9128420        2.1661500
H       -5.2005820        2.6620530        2.8496180
H       -4.6027720        4.3292290        2.5736290
F       -5.8115130        1.0539310       -3.4987000
C        0.8387410        3.5144140        3.4368980
F       -0.4719840        3.2994480        3.0011320
F        1.0390200        4.9338010        3.3801540
F        0.8438650        3.1931610        4.8166640
C        3.3366440        2.0841930       -0.8459610
O        4.4321550        1.3153300       -1.2043260
O        2.6800920        2.7583890       -1.6672940
C        4.6989680        1.1750120       -2.6543190
H        5.5918440        0.5438360       -2.7085390
H        3.8429870        0.6878640       -3.1387990
H        4.8780510        2.1580120       -3.1107330
F        5.3194590        1.6343230        3.6053470
C       -0.9768600        1.1990630       -3.6294470
F        0.2447870        1.2164010       -2.9623180
F       -0.8451790        2.0859790       -4.7452620
F       -1.0846370       -0.0951210       -4.2062560
