115
M00000274_2D_DFT last geometry from G09 out file
 Ru        0.2705130        0.0826160       -0.4547430
 C       -1.2670160       -0.7054320       -1.0071510
 Cl        0.1738270       -0.4995090        1.8851480
 Cl        1.3565360       -0.0704060       -2.6394110
 H       -2.1932290       -0.2516160       -1.3623940
 H       -1.2189120       -1.8165510       -1.0220240
 C       -0.0352140        2.0248530       -0.4099140
 N        0.9612230        2.8826120        0.0834310
 N       -1.0650210        2.7906540       -0.9421110
 C        0.7189580        4.3324390       -0.3449000
 C        1.9389610        2.5133660        1.1466800
 C       -0.7435050        4.2926300       -0.9612990
 H        0.7198750        4.9464750        0.5628320
 H       -0.6721930        4.5695250       -2.0193240
 C        1.6531540        2.8437610        2.5131510
 C        3.1848680        1.8531600        0.8520670
 C        2.5975010        2.5316790        3.5194250
 C        3.8182620        1.8857240        3.2625900
 H        2.3402890        2.7931100        4.5408560
 C        4.0703070        1.5628120        1.9136450
 H        4.9994340        1.0610050        1.6600180
 C       -2.2848610        2.2677130       -1.5682900
 C       -2.4422610        2.2801890       -2.9913540
 C       -3.3709550        1.8049580       -0.7446890
 C       -3.7051290        1.9420190       -3.5397590
 C       -4.8133670        1.5604250       -2.7600100
 H       -3.8044280        1.9762310       -4.6199920
 C       -4.5973150        1.4794020       -1.3649010
 H       -5.4122560        1.1560730       -0.7209310
 C       -1.3115240        2.5964800       -3.9906150
 C       -1.5560930        3.9082640       -4.7936920
 C       -1.0822310        1.4220930       -4.9872710
 H       -0.3798390        2.7042380       -3.4275510
 H       -2.4626160        3.8351080       -5.4124820
 H       -0.7087320        4.0970790       -5.4708260
 H       -1.6706270        4.7871900       -4.1451750
 H       -0.1891640        1.6249590       -5.5976970
 H       -1.9323230        1.2937000       -5.6734750
 H       -0.9101190        0.4785870       -4.4579530
 C       -3.3018470        1.6569020        0.7813170
 C       -3.8288400        0.3193640        1.3639150
 H       -3.9005110        2.4658460        1.2335020
 H       -2.2744680        1.7865640        1.1288770
 H       -4.8922610        0.1494490        1.1429840
 H       -3.7187770        0.3351520        2.4589550
 H       -3.2561360       -0.5388270        0.9920330
 C        1.8721490        4.9392330       -1.2902160
 C        3.1712920        5.1341490       -0.4468810
 C        2.1456160        4.0650560       -2.5462240
 C        1.5269330        6.3647050       -1.8236070
 H        3.9411740        5.6206760       -1.0644640
 H        3.5888880        4.2021070       -0.0683870
 H        2.9830240        5.7894370        0.4181390
 H        3.0939930        4.3732050       -3.0112470
 H        1.3625980        4.2010860       -3.3038000
 H        2.2127900        3.0012810       -2.3230760
 H        2.3601660        6.6982900       -2.4602720
 H        1.4169930        7.1036660       -1.0204550
 H        0.6251630        6.3830330       -2.4460390
 C       -6.2026940        1.2129550       -3.3635250
 C       -7.2871940        2.1571800       -2.7508770
 C       -6.2441480        1.3782490       -4.9090730
 C       -6.5587840       -0.2720530       -3.0293030
 H       -7.0667340        3.2102640       -2.9822780
 H       -7.3493730        2.0593300       -1.6582720
 H       -8.2788550        1.9172270       -3.1643060
 H       -5.5365660        0.7043330       -5.4142370
 H       -6.0207610        2.4102270       -5.2181820
 H       -7.2508180        1.1337830       -5.2787540
 H       -5.8120090       -0.9596210       -3.4540520
 H       -7.5416630       -0.5329880       -3.4509970
 H       -6.6022850       -0.4513680       -1.9461860
 C       -1.8557380        5.3025860       -0.3615410
 C       -2.2538980        5.0498080        1.1171210
 C       -1.3468970        6.7776580       -0.4173490
 C       -3.1490820        5.2880050       -1.2392460
 H       -1.4945240        5.4285060        1.8078480
 H       -2.4284270        3.9978870        1.3351990
 H       -3.1840250        5.5949570        1.3379560
 H       -2.1201570        7.4222380        0.0264850
 H       -1.1808170        7.1294730       -1.4426000
 H       -0.4296110        6.9333150        0.1612680
 H       -2.9217110        5.4169020       -2.3055140
 H       -3.7899670        6.1309130       -0.9390170
 H       -3.7361080        4.3746680       -1.1267250
 C        0.3641330        3.5264750        2.9957910
 C        0.6551540        4.9401400        3.5830210
 C       -0.4220550        2.6715710        4.0317130
 H       -0.2939920        3.6428690        2.1350050
 H        1.2910140        4.8745860        4.4772550
 H       -0.2807060        5.4361960        3.8830580
 H        1.1732300        5.5902440        2.8618410
 H       -0.6128650        1.6629090        3.6474000
 H       -1.3879450        3.1523190        4.2563290
 H        0.1229550        2.5735290        4.9816490
 C        3.6705910        1.4838690       -0.5527470
 C        4.4880080        0.1743070       -0.6815470
 H        4.2984970        2.3069450       -0.9348620
 H        2.8277140        1.4102720       -1.2382290
 H        3.9679450       -0.6756260       -0.2174050
 H        5.4901860        0.2495790       -0.2343080
 H        4.6211930       -0.0601760       -1.7475220
 C        4.8433020        1.5175920        4.3697720
 C        5.0364690       -0.0334860        4.3956900
 C        6.2126030        2.2080070        4.0685830
 C        4.3830290        1.9660890        5.7857130
 H        5.4223380       -0.4148580        3.4403590
 H        4.0826570       -0.5432140        4.5968150
 H        5.7516360       -0.3162850        5.1837600
 H        6.6236250        1.9001820        3.0972660
 H        6.9507810        1.9446710        4.8418960
 H        6.1062620        3.3034510        4.0567500
 H        4.2466770        3.0562660        5.8481270
 H        5.1458720        1.6862680        6.5272270
 H        3.4416190        1.4809910        6.0829900
