95
M00000270_2D_DFT last geometry from G09 out file
 Ru        0.3693510        0.0692110       -0.8282040
 C       -1.1744750       -0.7140610       -1.3681030
 Cl        0.5052260       -0.7233350        1.4511610
 Cl        1.2369180        0.3357190       -3.0928170
 H       -2.1418910       -0.2702480       -1.6048240
 H       -1.0768920       -1.8087440       -1.5430190
 C        0.0135040        1.9526970       -0.4719700
 N        1.0863360        2.7769420       -0.0969130
 N       -1.1135320        2.7381730       -0.6519430
 C        0.7419960        4.2575510       -0.2750830
 C        2.1325920        2.3743060        0.8515190
 C       -0.8032130        4.2405790       -0.5838910
 H        0.9154220        4.7449500        0.6915970
 H       -0.9558090        4.6167520       -1.6015490
 C        1.8668430        2.5946350        2.2278810
 C        3.4302550        1.8264280        0.5667910
 C        2.7482800        2.4001310        3.2844270
 C        4.0551030        1.9133750        2.9964620
 H        2.3930280        2.5946700        4.2912460
 C        4.3393150        1.6267580        1.6309520
 H        5.3035450        1.1997670        1.3780340
 C       -2.3421730        2.2592920       -1.2562590
 C       -2.5426330        2.4722160       -2.6419400
 C       -3.4095170        1.5953950       -0.5613480
 C       -3.6725200        2.1031460       -3.3670420
 C       -4.7397900        1.4499540       -2.6835650
 H       -3.6913780        2.3183300       -4.4305570
 C       -4.5622670        1.2156480       -1.2865690
 H       -5.3494780        0.7112490       -0.7364930
 F       -1.5259320        3.1193210       -3.3766080
 C       -3.3773930        1.2568000        0.9457300
 C       -3.4709410       -0.2691380        1.2373390
 C       -4.5091110        1.9871810        1.7295010
 H       -2.4128080        1.5878910        1.3458840
 H       -3.4491420       -0.4326600        2.3253140
 H       -2.6227960       -0.8155920        0.8130020
 H       -4.4045260       -0.7058460        0.8517480
 H       -4.5155750        3.0681770        1.5490090
 H       -4.3735400        1.8257060        2.8098910
 H       -5.5008710        1.5949690        1.4590060
 C        1.6781230        4.9984650       -1.3486340
 C        3.0556360        5.2822170       -0.6752350
 C        1.8535910        4.1673510       -2.6482990
 C        1.1308600        6.3930330       -1.7857720
 H        3.5386030        4.3771500       -0.3041180
 H        2.9396400        5.9705820        0.1774050
 H        3.7368170        5.7607140       -1.3950950
 H        0.9006110        4.0298690       -3.1743480
 H        2.2633110        3.1749480       -2.4625430
 H        2.5360440        4.6953830       -3.3317000
 H        1.0598930        7.1005160       -0.9519410
 H        0.1550430        6.3348630       -2.2847580
 H        1.8354500        6.8201770       -2.5151780
 N       -5.8987140        1.0569320       -3.3587930
 C       -6.0209620        1.2811440       -4.8067870
 C       -6.9849300        0.3756360       -2.6405900
 H       -6.9889090        0.9039280       -5.1554170
 H       -5.2317710        0.7558710       -5.3725610
 H       -5.9684770        2.3540360       -5.0605810
 H       -7.3858260        0.9962460       -1.8209540
 H       -6.6580700       -0.5886140       -2.2126910
 H       -7.8082430        0.1704250       -3.3341300
 C       -1.7636500        5.1252180        0.3478300
 C       -1.8763480        4.6194130        1.8113200
 C       -1.2586790        6.5999520        0.4351950
 C       -3.1801210        5.2175980       -0.3051720
 H       -0.9693720        4.8429330        2.3832990
 H       -2.0440410        3.5444540        1.8756870
 H       -2.7147530        5.1291310        2.3101080
 H       -1.2715610        7.1071620       -0.5367890
 H       -0.2509310        6.6783530        0.8610240
 H       -1.9341020        7.1541390        1.1042580
 H       -3.7901630        5.9485900        0.2470710
 H       -3.7188900        4.2684470       -0.3024960
 H       -3.1157850        5.5649520       -1.3479980
 F        0.5818140        3.0508200        2.5908240
 C        3.8935870        1.3463670       -0.8229770
 C        4.1552680       -0.1908640       -0.8216810
 C        5.1583340        2.0780290       -1.3557980
 H        3.0872380        1.5273780       -1.5381930
 H        3.3172650       -0.7480130       -0.3835680
 H        5.0596050       -0.4461570       -0.2490400
 H        4.2925000       -0.5419520       -1.8541510
 H        5.4004520        1.7002120       -2.3610540
 H        6.0349640        1.8996750       -0.7151690
 H        5.0129170        3.1619400       -1.4333310
 N        4.9964050        1.7128190        4.0109480
 C        4.6246220        1.9360920        5.4153210
 C        6.3121560        1.1366690        3.7006430
 H        5.4954750        1.7598260        6.0571060
 H        3.8173990        1.2578410        5.7459120
 H        4.2913140        2.9738370        5.5846040
 H        6.9170350        1.0960390        4.6138910
 H        6.8595560        1.7513080        2.9667040
 H        6.2350590        0.1098250        3.2998010
