101
M00000272_2D_DFT last geometry from G09 out file
 Ru        0.3446510        0.0402840       -0.6165420
 C       -1.2058480       -0.7374260       -1.1446200
 Cl        0.3993180       -0.6805080        1.6915160
 Cl        1.2611050        0.1709640       -2.8888050
 H       -2.1594400       -0.2816440       -1.4126770
 H       -1.1318710       -1.8421430       -1.2584510
 C        0.0171050        1.9544140       -0.3666330
 N        1.0724510        2.7650800        0.0769930
 N       -1.0701090        2.7519630       -0.7041030
 C        0.7874260        4.2471710       -0.1958880
 C        2.1066460        2.3725390        1.0720440
 C       -0.7125180        4.2481920       -0.7044070
 H        0.8489580        4.7690980        0.7681230
 H       -0.7134800        4.5555600       -1.7566100
 C        1.8240600        2.6199810        2.4560140
 C        3.4007570        1.8312620        0.7450810
 C        2.8245990        2.4827470        3.4357550
 C        4.1455040        2.0723700        3.1163010
 H        2.5408830        2.6692080        4.4690710
 C        4.3721340        1.7118490        1.7622810
 H        5.3320410        1.2910680        1.4824290
 C       -2.3014550        2.2475460       -1.3235910
 C       -2.4439190        2.3100510       -2.7481060
 C       -3.3821450        1.7019280       -0.5460380
 C       -3.6383070        1.8844950       -3.3619670
 C       -4.7384390        1.3766140       -2.6161610
 H       -3.6922680        1.9425240       -4.4459470
 C       -4.5584760        1.2862040       -1.2086300
 H       -5.3553180        0.8729290       -0.5989600
 C       -1.3451220        2.8069340       -3.6750380
 H       -0.3541750        2.4934720       -3.3406570
 H       -1.3561970        3.9051060       -3.7704280
 H       -1.4882250        2.3991880       -4.6842550
 C       -3.3709190        1.5087410        0.9879300
 C       -3.4656960        0.0162860        1.4216560
 C       -4.5188170        2.2993320        1.6877770
 H       -2.4137360        1.8776070        1.3701570
 H       -3.4741210       -0.0466600        2.5207200
 H       -2.6064220       -0.5639070        1.0722460
 H       -4.3876160       -0.4571540        1.0523110
 H       -4.3716900        2.2843450        2.7790390
 H       -5.4981120        1.8416050        1.4845700
 H       -4.5694510        3.3460250        1.3653320
 C        1.8782090        4.9423240       -1.1585820
 C        3.1748970        5.1985750       -0.3284450
 C        2.1761810        4.0934730       -2.4248800
 C        1.4561100        6.3483720       -1.6888940
 H        3.9260170        5.7025460       -0.9555610
 H        3.6219480        4.2864030        0.0661640
 H        2.9631330        5.8608520        0.5262500
 H        1.3407190        4.1330350       -3.1356380
 H        2.3684250        3.0461870       -2.2019550
 H        3.0572080        4.5009170       -2.9426720
 H        1.3473310        7.0912830       -0.8909410
 H        0.5334950        6.3263820       -2.2812410
 H        2.2537800        6.7064030       -2.3573110
 N       -5.9280280        0.9732740       -3.2374270
 C       -7.0303140        0.4167490       -2.4422130
 C       -6.0534940        1.0244190       -4.7004130
 H       -6.7460170       -0.5215730       -1.9320490
 H       -7.8796530        0.1948230       -3.0987490
 H       -7.3801780        1.1289480       -1.6752390
 H       -5.9207580        2.0499730       -5.0859800
 H       -7.0542670        0.6870180       -4.9940910
 H       -5.3173210        0.3728270       -5.2045480
 C       -1.7542520        5.2494020        0.0072580
 C       -2.0304530        4.9421780        1.5019110
 C       -1.2395280        6.7227290       -0.0232860
 C       -3.0987760        5.2746310       -0.7885340
 H       -2.8812130        5.5490300        1.8462700
 H       -1.1719120        5.2087220        2.1290020
 H       -2.2732000        3.8970700        1.6825350
 H       -1.9797410        7.3526090        0.4926070
 H       -1.1339340        7.1139680       -1.0415830
 H       -0.2874560        6.8485270        0.5047100
 H       -3.7310980        6.0898190       -0.4045280
 H       -3.6670520        4.3469910       -0.7080580
 H       -2.9265750        5.4710610       -1.8575050
 C        0.4444140        2.9763730        2.9817490
 H        0.2249320        2.3679620        3.8702980
 H       -0.3394470        2.7786290        2.2542970
 H        0.3828540        4.0320890        3.2874110
 C        3.8162960        1.2523780       -0.6230190
 C        4.0722440       -0.2829430       -0.5161180
 C        5.0647450        1.9304560       -1.2557180
 H        2.9893950        1.3796710       -1.3248780
 H        3.2451850       -0.8004180       -0.0126800
 H        4.9905240       -0.5000680        0.0496780
 H        4.1795980       -0.7112140       -1.5228610
 H        5.2535280        1.4944070       -2.2489620
 H        5.9682340        1.7706960       -0.6485260
 H        4.9335100        3.0111350       -1.3835480
 N        5.1543220        1.9909910        4.0870790
 C        6.4751700        1.4503790        3.7401210
 C        4.8432770        2.2522900        5.4985100
 H        6.4320850        0.3865670        3.4405720
 H        7.1414490        1.5282110        4.6076140
 H        6.9375280        2.0180960        2.9158520
 H        4.4136570        3.2585590        5.6350600
 H        5.7646100        2.2041900        6.0912310
 H        4.1313090        1.5172790        5.9182220
