57
M00000273_2D_DFT last geometry from G09 out file
 Ru        0.2452590       -0.0947130        0.0971690
 C       -0.6265820       -0.8112360       -1.3281250
 Cl       -1.4263330        0.0185860        1.8422020
 Cl        2.4899860       -0.5835230       -0.6272050
 H       -0.9065620       -0.3198550       -2.2662670
 H       -0.8293520       -1.9005540       -1.2649990
 C        0.2309730        1.7805150       -0.3796930
 N        1.1841380        2.6638390        0.1164260
 N       -0.5717640        2.4985670       -1.2577180
 C        1.1138830        4.0325790       -0.4908680
 C        2.1671050        2.3622420        1.1219440
 C        0.9664050        5.1643650        0.5722890
 C       -0.1004500        3.9159220       -1.4651330
 H        2.0366600        4.2100180       -1.0629920
 C       -0.4394490        5.2526470        1.1300550
 H        1.7099200        5.0224170        1.3666050
 H        1.2317380        6.1125960        0.0692990
 C       -1.4879660        5.1643190        0.2759940
 H       -0.5819440        5.3732200        2.2054480
 C       -1.2114920        4.9771950       -1.2019680
 H       -2.5208020        5.2101900        0.6257930
 H       -2.1204420        4.7119110       -1.7554130
 H       -0.8510920        5.9255910       -1.6414690
 H        0.2409300        4.0192220       -2.5062100
 C        1.7745550        1.8144920        2.3674860
 C        3.5327800        2.6580870        0.8904100
 C        2.7409520        1.5387380        3.3503170
 C        4.1081070        1.8283610        3.1222380
 H        2.4420440        1.1101580        4.3061950
 C        4.4921620        2.3958000        1.8799220
 H        5.5419970        2.6069640        1.6894300
 C       -1.7851420        2.0726060       -1.9003590
 C       -1.9019640        2.1739140       -3.3102310
 C       -2.8913980        1.6218400       -1.1398800
 C       -3.1029260        1.8238130       -3.9484150
 C       -4.2105180        1.3611230       -3.1929950
 H       -3.1946500        1.8920970       -5.0317550
 C       -4.0879640        1.2604290       -1.7840180
 H       -4.9316390        0.9076160       -1.1950150
 H        0.7233940        1.6232380        2.5737810
 H        3.8526490        3.0513200       -0.0735860
 C        5.0894010        1.5236750        4.2066720
 O        6.3985720        1.8561640        3.8392250
 O        4.8038110        1.0308470        5.3224130
 C        7.4520570        1.5733510        4.8377860
 H        8.3825050        1.8975210        4.3591170
 H        7.2672600        2.1376900        5.7622570
 H        7.4823830        0.4997550        5.0690390
 H       -1.0518820        2.5048410       -3.9069290
 H       -2.8056520        1.5404900       -0.0594630
 C       -5.4624090        0.9996370       -3.9254270
 O       -6.4643130        0.5494540       -3.0621290
 O       -5.6198110        1.0816550       -5.1663380
 C       -7.7474050        0.1585450       -3.6862720
 H       -8.3778820       -0.1572640       -2.8482400
 H       -8.1929580        1.0124800       -4.2148310
 H       -7.5928840       -0.6663960       -4.3951640
