79
M00000341_2D_DFT last geometry from G09 out file
 Ru        0.1945530       -0.1623370       -0.3317170
 C       -1.3430430       -0.9202930       -0.9227210
 Cl       -0.0171240       -0.6497470        2.0250800
 Cl        1.3378970       -0.1990070       -2.4809260
 H       -2.2732610       -0.4578520       -1.2565350
 H       -1.2914880       -2.0300290       -0.9824870
 C       -0.0704290        1.7667930       -0.2620460
 N        0.9885690        2.5866430        0.1520710
 N       -1.1259360        2.5795790       -0.6425640
 C        0.7259860        4.0498380       -0.1630860
 C        1.9274130        2.2267370        1.2299360
 C       -0.8061640        4.0664890       -0.5112990
 H        0.9088560        4.6131720        0.7595990
 H       -0.9477390        4.5010510       -1.5087420
 C        1.5266560        2.5691170        2.5474430
 C        3.1888910        1.5958330        1.0363310
 C        2.3411740        2.3214190        3.6596560
 C        3.6024340        1.6983250        3.4973840
 H        1.9823690        2.5832770        4.6568850
 C        3.9844740        1.3474440        2.1875320
 H        4.9459550        0.8508160        2.0363380
 C       -2.2578040        2.1527340       -1.4588300
 C       -2.1545420        2.3252840       -2.8594840
 C       -3.4512880        1.6038810       -0.9044360
 C       -3.2206130        2.0068830       -3.7177090
 C       -4.4333910        1.4958450       -3.1959940
 H       -3.0999650        2.1388260       -4.7944950
 C       -4.5087510        1.2942860       -1.7987250
 H       -5.4225110        0.8677500       -1.3786860
 H       -1.2175660        2.6838760       -3.2805720
 C       -3.6422980        1.2998600        0.5740520
 H       -4.0941560        2.1506670        1.1066250
 H       -2.7022380        1.0508410        1.0749140
 H       -4.3236900        0.4471890        0.7023810
 C        1.7000410        4.6685450       -1.2702520
 C        3.1503920        4.7380110       -0.7039470
 C        1.6880230        3.8578780       -2.5953580
 C        1.2988830        6.1388440       -1.6042740
 H        3.1813790        5.2771630        0.2557370
 H        3.7970760        5.2812380       -1.4093860
 H        3.5883180        3.7516440       -0.5497840
 H        0.7352460        3.9701290       -3.1325150
 H        1.8609810        2.7898670       -2.4377220
 H        2.4763640        4.2329190       -3.2651980
 H        2.0003800        6.5316020       -2.3552030
 H        1.3581650        6.7949980       -0.7255780
 H        0.2918650        6.2234100       -2.0325860
 C       -5.6151130        1.1789950       -4.1046460
 C       -6.5503110        2.3971610       -4.3406980
 H       -6.2079830        0.3572280       -3.6723740
 H       -5.2469250        0.8222230       -5.0799220
 H       -6.9736330        2.7627930       -3.3930040
 H       -7.3854610        2.1192630       -5.0025710
 H       -6.0071820        3.2310690       -4.8102850
 C       -1.7627450        4.9025700        0.4629160
 C       -1.8533310        4.3014740        1.8932360
 C       -1.2501250        6.3705040        0.6044400
 C       -3.1891240        5.0184200       -0.1604810
 H       -0.9473200        4.5152270        2.4755280
 H       -2.0083570        3.2190930        1.8830800
 H       -2.6936640        4.7591660        2.4363780
 H       -1.9245450        6.9127090        1.2838720
 H       -1.2521350        6.9047230       -0.3545330
 H       -0.2426790        6.4338660        1.0339480
 H       -3.7285890        4.0701360       -0.1800900
 H       -3.1446590        5.3993320       -1.1924290
 H       -3.7893190        5.7293540        0.4271660
 H        0.5425500        2.9998290        2.7018920
 C        3.7587350        1.1487100       -0.2988700
 H        4.7835620        1.5308660       -0.4256100
 H        3.1604390        1.4633510       -1.1526350
 H        3.8202560        0.0510970       -0.3446100
 C        4.5138110        1.4310210        4.6889230
 C        5.4140160        2.6417650        5.0596280
 H        5.1574220        0.5628590        4.4764010
 H        3.9037580        1.1619470        5.5663850
 H        6.0703520        2.9195240        4.2209790
 H        6.0505490        2.3995210        5.9252820
 H        4.8091030        3.5238660        5.3188990
