89
M00000340_2D_DFT last geometry from G09 out file
 Ru        0.4876910        0.1116070       -0.7152290
 C       -1.0158630       -0.7344320       -1.2716610
 Cl        0.5430610       -0.6502930        1.5799390
 Cl        1.4255730        0.3686600       -2.9489780
 H       -1.9996520       -0.3308590       -1.5142570
 H       -0.8742520       -1.8267230       -1.4308510
 C        0.0605160        1.9969810       -0.4353940
 N        1.0799300        2.8634900       -0.0208250
 N       -1.0842500        2.7387590       -0.6671810
 C        0.6718320        4.3295330       -0.1591640
 C        2.1437090        2.4595960        0.9017720
 C       -0.8682200        4.2441960       -0.4885360
 H        0.8130210        4.7942260        0.8244640
 H       -1.0381990        4.6893080       -1.4757600
 C        1.8784660        2.5564840        2.2918930
 C        3.4627310        2.0072700        0.5641100
 C        2.7707750        2.2857650        3.3221090
 C        4.0862970        1.8548460        2.9873540
 H        2.4162050        2.3767100        4.3436730
 C        4.3825170        1.7275250        1.5995800
 H        5.3680140        1.3868190        1.3027890
 C       -2.2624940        2.2369790       -1.3427300
 C       -2.4388150        2.5026300       -2.7197830
 C       -3.3169980        1.5067390       -0.7022770
 C       -3.5450360        2.1299210       -3.4813790
 C       -4.6050900        1.4190720       -2.8469470
 H       -3.5504000        2.3867480       -4.5357550
 C       -4.4468310        1.1246180       -1.4571200
 H       -5.2246990        0.5694180       -0.9457330
 F       -1.4295940        3.2108200       -3.4052750
 C       -3.2544880        1.1415980        0.7851590
 C       -3.9005310       -0.2000410        1.2048820
 H       -3.7471410        1.9456430        1.3572090
 H       -2.2099250        1.1284120        1.1101700
 H       -3.4755700       -1.0478090        0.6496130
 H       -4.9927830       -0.2111040        1.0716630
 H       -3.7011440       -0.3735930        2.2730780
 C        1.5731890        5.1533270       -1.1989110
 C        2.9770010        5.3993700       -0.5653820
 C        1.7082520        4.4360830       -2.5702450
 C        0.9926980        6.5731690       -1.4863790
 H        2.8908530        5.9452890        0.3878320
 H        3.5882780        6.0140180       -1.2434410
 H        3.5242640        4.4766490       -0.3713970
 H        0.7518610        4.3995590       -3.1056720
 H        2.0659000        3.4099560       -2.4774970
 H        2.4197150        4.9882050       -3.2033000
 H        1.6626480        7.0797100       -2.1972410
 H        0.9405820        7.1975610       -0.5859230
 H       -0.0003440        6.5436290       -1.9517430
 N       -5.7411020        1.0251100       -3.5592230
 C       -5.8469260        1.3129780       -4.9971910
 C       -6.8173440        0.2784850       -2.8924780
 H       -6.8002430        0.9300680       -5.3783960
 H       -5.0367940        0.8331620       -5.5737460
 H       -5.8162900        2.3974140       -5.2001040
 H       -6.4672980       -0.6938370       -2.5030690
 H       -7.6221780        0.0804690       -3.6093960
 H       -7.2507760        0.8481060       -2.0526530
 C       -1.8897960        4.9890520        0.4999680
 C       -1.9497270        4.3865600        1.9302350
 C       -1.4977540        6.4910120        0.6648430
 C       -3.3207120        5.0015900       -0.1281490
 H       -1.0693150        4.6616090        2.5211310
 H       -2.0110800        3.2976600        1.9269580
 H       -2.8342960        4.7802000        2.4545040
 H       -1.5532460        7.0463130       -0.2798460
 H       -0.4955950        6.6222890        1.0903820
 H       -2.2075630        6.9582430        1.3638520
 H       -3.3025440        5.3613810       -1.1684910
 H       -3.9624580        5.6876060        0.4453640
 H       -3.8018870        4.0209790       -0.1203590
 F        0.5880200        2.9534070        2.6963710
 C        3.9595250        1.8317680       -0.8736210
 C        4.7464650        0.5276570       -1.1591690
 H        4.6133330        2.6844570       -1.1268160
 H        3.1179960        1.8716430       -1.5655630
 H        4.9447210        0.4548300       -2.2386760
 H        4.1700930       -0.3607380       -0.8669530
 H        5.7163500        0.4933580       -0.6412190
 N        5.0303870        1.5671990        3.9770470
 C        6.3553000        1.0470670        3.6107210
 C        4.6600470        1.6540300        5.3969110
 H        6.2886200        0.0848040        3.0726660
 H        6.9470100        0.8835250        4.5187370
 H        6.9101540        1.7577900        2.9749570
 H        5.5337820        1.4254910        6.0178880
 H        3.8596140        0.9402590        5.6621310
 H        4.3179470        2.6680600        5.6643310
