97
M00000339_2D_DFT last geometry from G09 out file
 Ru        0.1669330        0.2163970       -0.7621310
 C       -1.4273770       -0.5531160       -1.1530540
 Cl        0.4156290       -0.5211020        1.5251750
 Cl        0.9206040        0.4141380       -3.0618290
 H       -2.4120860       -0.1055600       -1.2910770
 H       -1.3554180       -1.6514130       -1.3154890
 C       -0.1145210        2.1274320       -0.4891110
 N        0.9891140        2.9306410       -0.1669590
 N       -1.2114040        2.9480060       -0.6845980
 C        0.6861590        4.4175650       -0.3552830
 C        2.0574180        2.4984430        0.7411840
 C       -0.8734060        4.4402450       -0.5997190
 H        0.9171340        4.9157030        0.5946430
 H       -1.0588530        4.8448480       -1.6014050
 C        1.8309490        2.6779650        2.1316500
 C        3.3290900        1.9519970        0.3762820
 C        2.7540360        2.4160650        3.1412670
 C        4.0269200        1.9231080        2.7794880
 H        2.4661990        2.5739900        4.1799000
 C        4.2705980        1.6986100        1.4102070
 H        5.2450130        1.3060650        1.1207420
 C       -2.4682140        2.5053400       -1.2551690
 C       -2.7110280        2.7292200       -2.6309990
 C       -3.5160920        1.8864480       -0.4988860
 C       -3.9003690        2.4022730       -3.2878620
 C       -4.9463660        1.8124800       -2.5447220
 H       -3.9897630        2.6007580       -4.3552680
 C       -4.7237490        1.5663060       -1.1700120
 H       -5.5234510        1.0999000       -0.5973370
 F       -1.7006680        3.3281550       -3.4073490
 C       -3.3798320        1.5869620        0.9964440
 C       -4.0213960        0.2699310        1.5110390
 H       -2.3208780        1.5770210        1.2717100
 H       -3.8401380        2.4203210        1.5550710
 C       -3.7310560        0.0356240        3.0142060
 H       -5.1141220        0.2841700        1.3641780
 H       -3.6333630       -0.5851890        0.9357380
 C       -4.3627890       -1.2647260        3.5576240
 H       -4.1080940        0.8948900        3.5977500
 H       -2.6406820        0.0021850        3.1697040
 H       -5.4594690       -1.2598950        3.4451610
 H       -4.1366790       -1.3959220        4.6274640
 H       -3.9729860       -2.1470310        3.0253700
 C        1.5874010        5.1163330       -1.4834660
 C        3.0493470        5.2484170       -0.9570220
 C        1.5638970        4.3445820       -2.8312980
 C        1.1208600        6.5739550       -1.7871980
 H        3.5378540        4.2845600       -0.8153010
 H        3.0815530        5.7898800        0.0019540
 H        3.6514130        5.8207810       -1.6785530
 H        0.5808270        4.3975990       -3.3147950
 H        1.8117020        3.2880320       -2.7197160
 H        2.2940140        4.7937130       -3.5216400
 H        1.1918120        7.2311420       -0.9114990
 H        0.0989570        6.6231610       -2.1823960
 H        1.7816470        6.9896020       -2.5623680
 C       -6.2777590        1.4735730       -3.2036000
 C       -7.2790830        2.6615860       -3.2078490
 H       -6.7412890        0.6211860       -2.6825280
 H       -6.1057840        1.1520170       -4.2431420
 H       -6.8720120        3.5244530       -3.7558740
 H       -7.5097560        2.9914020       -2.1837600
 H       -8.2229230        2.3659300       -3.6916220
 C       -1.7838050        5.3176500        0.3904080
 C       -1.8240560        4.8061120        1.8558910
 C       -1.2672420        6.7895990        0.4494740
 C       -3.2388820        5.4119540       -0.1725520
 H       -0.8919580        5.0278030        2.3869420
 H       -1.9909430        3.7310030        1.9242870
 H       -2.6381640        5.3150000        2.3945980
 H       -1.3283900        7.2973150       -0.5210030
 H       -0.2375670        6.8622530        0.8193380
 H       -1.9015260        7.3486310        1.1533810
 H       -3.7920000        6.1844500        0.3824680
 H       -3.7987520        4.4787750       -0.0747670
 H       -3.2454090        5.7037390       -1.2340180
 F        0.5699740        3.1474100        2.5438340
 C        3.7804060        1.6389530       -1.0512100
 C        4.2613560        0.1759630       -1.2809840
 H        2.9850540        1.8529230       -1.7670000
 H        4.6233720        2.3078310       -1.2997150
 C        4.8695510       -0.0294080       -2.6888390
 H        5.0128580       -0.1054610       -0.5264160
 H        3.4131060       -0.5118740       -1.1480790
 C        5.3160640       -1.4855660       -2.9464630
 H        5.7365160        0.6451160       -2.8132600
 H        4.1295040        0.2619470       -3.4503620
 H        5.7522680       -1.5944430       -3.9521320
 H        4.4619430       -2.1776620       -2.8766370
 H        6.0737760       -1.8112870       -2.2149680
 C        5.0928680        1.6552320        3.8338720
 C        5.9082410        2.9200400        4.2196240
 H        5.7868620        0.8826490        3.4679960
 H        4.6195860        1.2480190        4.7417710
 H        6.4311870        3.3375200        3.3459880
 H        6.6626710        2.6730690        4.9828040
 H        5.2561080        3.7062870        4.6287650
