67
M00000416_2D_DFT last geometry from G09 out file
 Ru       -0.0140670        0.1236470        0.7271110
 C       -1.1793700       -0.6347670       -0.4462170
 Cl       -1.2117940        0.3709530        2.7770220
 Cl        2.0397470       -0.7925480       -0.1121220
 H       -1.5726360       -0.2014610       -1.3700540
 H       -1.4460610       -1.6920790       -0.2438400
 C       -0.0775390        1.9912430        0.1867910
 N        0.9426690        2.8932210        0.5091260
 N       -1.0831140        2.7346750       -0.4551420
 C        0.6641250        4.3098750        0.0787630
 C        2.2814590        2.5552060        0.9701210
 C        0.6798410        5.3797820        1.2119860
 C       -0.6900380        4.1815100       -0.6763020
 H        1.4451330        4.5949940       -0.6327760
 C       -0.6350240        5.5230230        1.9444170
 H        1.4995550        5.1687000        1.9067200
 H        0.9287440        6.3398630        0.7206570
 C       -1.7955420        5.4613780        1.2523390
 H       -0.6208530        5.6662290        3.0245610
 C       -1.7576220        5.2261110       -0.2428980
 H       -2.7584270        5.5668000        1.7524410
 H       -2.7385800        4.9391410       -0.6411300
 H       -1.4908470        6.1653230       -0.7633320
 H       -0.5201060        4.3249090       -1.7532100
 C        2.5686270        2.2528060        2.3393620
 C        3.3754470        2.5387440        0.0393730
 C        3.8606880        1.9004370        2.7775600
 C        4.9216650        1.9028580        1.8623640
 H        4.0126060        1.6449010        3.8234200
 C        4.6729330        2.2340860        0.5225870
 H        5.5029790        2.2255010       -0.1815540
 C       -2.2183790        2.2610530       -1.2268710
 C       -2.0947810        2.1712940       -2.6544310
 C       -3.5184400        2.0421920       -0.6666320
 C       -3.1726270        1.8815040       -3.5090510
 C       -4.4319190        1.6316630       -2.9412810
 H       -3.0113850        1.8458420       -4.5844890
 C       -4.5844710        1.7106500       -1.5493800
 H       -5.5688010        1.5264130       -1.1232640
 N        1.5723340        2.3354510        3.4559110
 O        0.7248710        3.2968400        3.4558480
 O        1.6761140        1.4718630        4.3999670
 C        3.2342140        2.8341400       -1.4660070
 C        3.7994060        1.6986700       -2.3658580
 C        3.9104300        4.1899540       -1.8368270
 H        2.1704020        2.8989970       -1.7111090
 H        3.3365770        0.7365450       -2.1228160
 H        4.8904150        1.5952670       -2.2710420
 H        3.5774210        1.9298750       -3.4182610
 H        5.0020420        4.1381310       -1.7113280
 H        3.5509130        5.0282540       -1.2211050
 H        3.7088010        4.4304070       -2.8916800
 H        5.9285740        1.6480240        2.1932000
 N       -0.7965230        2.3639170       -3.3558400
 O        0.2435230        1.7629050       -2.9032030
 O       -0.7970150        3.1029070       -4.4131750
 C       -3.8522540        2.1466300        0.8294960
 C       -4.4206730        0.8059090        1.3792650
 C       -4.8720620        3.2897770        1.1135710
 H       -2.9307780        2.3639590        1.3791670
 H       -5.4024330        0.5669550        0.9426070
 H       -4.5468160        0.8839680        2.4677950
 H       -3.7378740       -0.0291720        1.1898860
 H       -4.5431660        4.2563360        0.7124110
 H       -5.0006390        3.3998980        2.2004910
 H       -5.8608860        3.0688400        0.6844680
 H       -5.2809100        1.3852810       -3.5789790
