95
M00000419_2D_DFT last geometry from G09 out file
 Ru       -1.2220110       -0.0261610        0.8201110
 C       -2.2066120       -0.8383460       -0.4709140
 Cl       -2.8996380        0.8429910        2.3154920
 Cl        0.7614760       -1.3991190        0.6571790
 H       -2.3441100       -0.5179810       -1.5065030
 H       -2.6798300       -1.8009720       -0.1841810
 C       -0.8068080        1.7169340        0.0205650
 N        0.2537180        2.5094090        0.4705840
 N       -1.5261590        2.4585830       -0.8997610
 C        1.4580330        2.0215240        1.1337810
 C        0.1433970        3.9854800       -0.0374880
 C        2.5649660        1.5012950        0.3631490
 C        1.5903720        2.1039200        2.5533580
 C        3.7909920        1.2325590        1.0134400
 C        3.9830740        1.4489140        2.3935800
 H        4.6259150        0.8457380        0.4328610
 C        2.8609530        1.8500310        3.1365170
 H        2.9629760        1.9720050        4.2154810
 C       -0.8567190        3.7544770       -1.2087000
 H       -1.6118540        4.5421320       -1.2643160
 H       -0.3322870        3.6706780       -2.1684690
 C       -2.7225510        2.1184470       -1.6501430
 C       -2.5954150        1.5202090       -2.9396270
 C       -4.0312420        2.4184890       -1.1415900
 C       -3.7742020        1.1743560       -3.6516810
 C       -5.0674720        1.3936530       -3.1434540
 H       -3.6625720        0.6980750       -4.6273620
 C       -5.1688600        2.0212290       -1.8821640
 H       -6.1601930        2.2252330       -1.4798360
 C       -1.2590290        1.2037410       -3.6056170
 C       -0.9532560        2.1011170       -4.8430170
 H       -1.2763130        0.1552080       -3.9498890
 H       -0.4318960        1.2841150       -2.8977290
 C        0.3686510        1.7123320       -5.5412240
 H       -0.9041740        3.1563710       -4.5273780
 H       -1.7827700        2.0354330       -5.5665760
 H        1.2181220        1.7871230       -4.8471780
 H        0.3311970        0.6766790       -5.9164250
 H        0.5671650        2.3720160       -6.4007950
 C       -4.2895960        3.2620950        0.0911030
 C       -5.5218970        2.9723370        0.9471090
 O       -3.5507480        4.2451410        0.3621040
 H       -5.3674900        3.4167640        1.9366500
 H       -6.4153360        3.4424180        0.5029300
 H       -5.7065000        1.8974590        1.0543840
 C       -0.4973800        4.9230760        1.0542210
 C        0.4256030        5.6493690        2.0653940
 H       -1.0589380        5.6989030        0.5116920
 H       -1.2610700        4.3507940        1.5926250
 C       -0.3909270        6.4079940        3.1424830
 H        1.1084160        4.9484370        2.5613880
 H        1.0637160        6.3786600        1.5427710
 C        0.4884450        7.2071270        4.1300140
 H       -1.0127450        5.6903550        3.7043990
 H       -1.0964730        7.0966710        2.6452510
 H        1.0901920        7.9672320        3.6057670
 H        1.1850810        6.5471980        4.6722370
 H       -0.1284110        7.7282640        4.8792370
 C        1.4951510        4.5474550       -0.5663380
 C        1.3860340        5.8974820       -1.3271000
 H        2.1945210        4.6706860        0.2716920
 H        1.9311540        3.8144040       -1.2497130
 C        2.7699110        6.4086330       -1.7997460
 H        0.7374530        5.7811450       -2.2111430
 H        0.9186240        6.6703670       -0.6986570
 C        2.6965940        7.7379940       -2.5833600
 H        3.2455620        5.6385370       -2.4320580
 H        3.4288940        6.5387750       -0.9231430
 H        2.2569690        8.5406160       -1.9695480
 H        2.0785800        7.6341520       -3.4896830
 H        3.6985990        8.0693830       -2.8987050
 C       -6.3117850        0.9910870       -3.9169990
 H       -6.9666510        0.3435020       -3.3130290
 H       -6.0591950        0.4472100       -4.8370540
 H       -6.9064250        1.8736610       -4.2038610
 C        2.4913930        1.1347240       -1.1052690
 C        3.4477730        0.0635060       -1.6411300
 O        1.6743420        1.6616290       -1.9093510
 H        4.4667770        0.4654230       -1.7635230
 H        3.4944620       -0.8086130       -0.9782950
 H        3.0867260       -0.2469630       -2.6283350
 C        0.4541730        2.4312380        3.5230160
 C        0.1762460        1.3113900        4.5709550
 H       -0.4732320        2.6409690        2.9844830
 H        0.7145010        3.3438500        4.0834000
 C       -0.8578450        1.7489880        5.6310070
 H        1.1114200        1.0264010        5.0786550
 H       -0.1872730        0.4089300        4.0586700
 H       -1.8197480        2.0037700        5.1643370
 H       -1.0418420        0.9372520        6.3521680
 H       -0.5063500        2.6276620        6.1971630
 C        5.3346590        1.2103500        3.0442700
 H        5.3006610        1.3900280        4.1271260
 H        6.1067240        1.8718890        2.6191770
 H        5.6751670        0.1742760        2.8881810
