65
M00000417_2D_DFT last geometry from G09 out file
 Ru        0.4717820       -0.1408530       -0.2951610
 C       -0.8143410       -0.9306510       -1.3066360
 Cl       -0.2313150       -0.8824480        1.8871450
 Cl        2.2037940        0.0301840       -2.0034630
 H       -1.7034510       -0.4884620       -1.7628500
 H       -0.6659260       -2.0206070       -1.4670400
 C       -0.0092410        1.7552360       -0.2397270
 N        0.7294020        2.6480480        0.5392150
 N       -0.9130430        2.4989890       -0.9998990
 C        1.7963630        2.2800720        1.4622020
 C        0.6311230        4.0620790       -0.0447250
 C        3.0023760        1.7738300        0.9216460
 C        1.6968850        2.5008720        2.8865060
 C        4.1187010        1.4726880        1.7246790
 C        4.0402920        1.7046720        3.1098880
 H        5.0249040        1.0748690        1.2674410
 C        2.8512000        2.2057030        3.6687280
 H        2.8022380        2.3411060        4.7473170
 C       -0.8360140        4.0001000       -0.6372220
 C       -2.1531580        1.9691950       -1.5460570
 C       -3.0895600        1.4558200       -0.6136580
 C       -2.5034270        2.0223410       -2.9466600
 C       -4.3769590        1.0338270       -0.9878190
 C       -4.7511860        1.1390470       -2.3433410
 H       -5.0666130        0.6436260       -0.2393710
 C       -3.8313640        1.6130750       -3.2924520
 H       -4.1311030        1.6301310       -4.3378570
 H       -5.7456000        0.8279440       -2.6691010
 C        1.7262650        4.2112380       -1.1442210
 H        1.6256380        3.4609520       -1.9350970
 H        2.7182060        4.0977050       -0.6899860
 H        1.6852510        5.2110190       -1.5963280
 C        0.8444900        5.1755280        1.0011670
 H        0.2131080        5.0519050        1.8823470
 H        0.6392920        6.1524270        0.5400310
 H        1.8905010        5.1838890        1.3342900
 C       -1.0463450        4.9197030       -1.8602020
 H       -0.3990290        4.6628520       -2.7004550
 H       -0.8514230        5.9618830       -1.5670830
 H       -2.0854580        4.8631430       -2.2055490
 C       -1.9267340        4.3430790        0.4160650
 H       -1.8104430        3.7632880        1.3348390
 H       -2.9230910        4.1469540        0.0029060
 H       -1.8806470        5.4098770        0.6711960
 H        3.0692600        1.6250840       -0.1519740
 N        0.5419480        3.0471110        3.5244210
 C       -0.7274380        2.2876750        3.5118790
 C        0.7306220        3.7992390        4.7780010
 H       -1.5743800        2.9792750        3.6449840
 H       -0.7614580        1.5419480        4.3298640
 H       -0.8437070        1.7416600        2.5779460
 H        1.6076630        4.4553930        4.7059730
 H        0.8455840        3.1557400        5.6748460
 H       -0.1559060        4.4312030        4.9430900
 H        4.8884500        1.4810650        3.7597960
 H       -2.7878050        1.3909350        0.4301020
 N       -1.6332670        2.4790260       -3.9638640
 C       -0.2668980        1.9341780       -4.0964020
 C       -2.1958840        2.9479300       -5.2395640
 H        0.4165770        2.7067680       -4.4822760
 H       -0.2459780        1.0809330       -4.8024920
 H        0.1158040        1.5814940       -3.1424090
 H       -3.0839910        3.5707860       -5.0697070
 H       -2.4690580        2.1267410       -5.9335720
 H       -1.4409740        3.5670370       -5.7468870
