56
M00000209_2D_DFT last geometry from G09 out file
 Ru       -0.1605160        0.1971420        0.8417770
 C       -1.4290210       -0.7030660       -0.0967580
 Cl       -1.3222900        0.5024640        2.9365880
 Cl        1.8320610       -0.5043170       -0.2996590
 H       -2.1078670       -0.3596590       -0.8795090
 H       -1.5047330       -1.7766440        0.1798350
 C       -0.2038050        2.0266460        0.1731190
 N        0.7985130        2.9299700        0.5319400
 N       -1.0920970        2.7288640       -0.6335440
 C        0.4617170        4.3251150        0.1407750
 C        1.8841440        2.6851770        1.4521680
 C       -0.6001970        4.1540370       -0.9773290
 H        1.3496690        4.8589420       -0.2010660
 H        0.0456370        4.8562920        1.0129140
 C        0.0200090        4.1878540       -2.4106280
 C       -1.7236190        5.2201580       -0.8786600
 C        0.5154880        5.5983320       -2.8205020
 H        0.8409350        3.4627920       -2.4810160
 H       -0.7539160        3.8822660       -3.1293810
 C       -0.6006300        6.6580880       -2.6847930
 H        1.3851360        5.8943820       -2.2118690
 H        0.8757590        5.5538000       -3.8611530
 C       -1.2187620        6.6337850       -1.2690140
 H       -1.3897250        6.4592000       -3.4310510
 H       -0.2008170        7.6608230       -2.9064000
 H       -2.0661110        7.3358710       -1.2099710
 H       -0.4745920        6.9870300       -0.5350290
 H       -2.1359310        5.2417030        0.1372060
 H       -2.5432120        4.9484720       -1.5606980
 C        1.5680340        2.4385670        2.8075060
 C        3.2587570        2.7496760        1.0659020
 C        2.5760120        2.2091760        3.7645290
 C        3.9283820        2.2541890        3.3794580
 H        2.2971590        2.0021380        4.7981770
 C        4.2609000        2.5342700        2.0406280
 H        5.3073730        2.5699470        1.7452780
 C       -2.2290580        2.1647640       -1.3159690
 C       -2.0060300        1.5614560       -2.5805970
 C       -3.5628410        2.2150880       -0.8152300
 C       -3.0616930        1.0389910       -3.3483620
 C       -4.3808470        1.1036720       -2.8546770
 H       -2.8527290        0.5780610       -4.3143730
 C       -4.6208040        1.6811060       -1.5964970
 H       -5.6373690        1.7147790       -1.2073400
 C       -4.0036020        2.8151570        0.5070090
 F       -4.7927350        3.9960590        0.2870460
 F       -2.9981890        3.1932820        1.3990360
 F       -4.8565400        1.9324610        1.2151710
 H       -5.2123640        0.7020990       -3.4340940
 H        0.5234240        2.4144390        3.1057380
 C        3.7343170        3.0964430       -0.3270680
 F        2.9612530        2.5940910       -1.3856480
 F        5.0566470        2.6729540       -0.5746030
 F        3.7613400        4.5282680       -0.5277620
 H        4.7206570        2.0782960        4.1073140
 H       -0.9817830        1.4802520       -2.9375630
