67
M00000211_2D_DFT last geometry from G09 out file
 Ru        0.1729130       -0.0121970       -0.0909460
 C       -1.2956320       -0.7205100       -0.8909440
 Cl       -0.2976990       -0.6755550        2.1792750
 Cl        1.7372600        0.0168140       -1.9451430
 H       -2.2317560       -0.2360120       -1.1773280
 H       -1.2351270       -1.8152750       -1.0725800
 C       -0.1705550        1.9134050       -0.0106240
 N        0.6526990        2.7372710        0.7476150
 N       -1.0855980        2.7303390       -0.6596100
 C        1.8053430        2.2655520        1.4942710
 C        0.4974940        4.2118350        0.3617460
 C        2.9506300        1.9023450        0.7445510
 C        1.8863060        2.2089330        2.9234520
 C        4.1443300        1.4818260        1.3561550
 C        4.2509950        1.4327840        2.7634770
 H        4.9892710        1.1944150        0.7280630
 C        3.1148820        1.8058850        3.5118090
 H        3.1527250        1.7725560        4.5992970
 C       -0.9989170        4.1908860       -0.1752520
 C       -2.1888190        2.2961400       -1.4849860
 C       -3.4343800        2.0465330       -0.8576750
 C       -2.0973650        2.0956430       -2.8967400
 C       -4.5728870        1.6632350       -1.5884510
 C       -4.5064830        1.4889380       -2.9909920
 H       -5.5101660        1.4819540       -1.0593110
 C       -3.2538730        1.6887260       -3.6115360
 H       -3.1575230        1.5203110       -4.6823040
 C       -5.7306000        1.1004600       -3.8012720
 H       -5.4564500        0.5421270       -4.7071750
 H       -6.2886960        1.9954080       -4.1246150
 H       -6.4232190        0.4794600       -3.2154700
 C        1.5372480        4.5586590       -0.7439480
 H        2.5528290        4.4360930       -0.3475300
 H        1.4335030        5.6090310       -1.0476450
 H        1.4214320        3.9293630       -1.6303340
 C        0.7284560        5.1611940        1.5583440
 H        0.1119960        4.9119240        2.4242470
 H        0.5066810        6.1940110        1.2541230
 H        1.7822630        5.1338200        1.8652930
 C       -1.2735310        5.2013280       -1.3116140
 H       -1.0921000        6.2207770       -0.9417720
 H       -2.3272500        5.1512120       -1.6186410
 H       -0.6509910        5.0226110       -2.1892070
 C       -2.0442160        4.4278320        0.9513800
 H       -1.9198090        3.7128060        1.7678700
 H       -3.0598900        4.3469550        0.5466230
 H       -1.9435970        5.4445610        1.3533280
 H        2.8938600        1.9345580       -0.3388220
 C        0.8070560        2.4677630        3.9448410
 O       -0.4847970        2.5474950        3.4431100
 O        1.0383910        2.5564850        5.1762340
 C       -1.5595560        2.5394830        4.4654670
 H       -2.4899940        2.5214410        3.8890630
 H       -1.4735660        1.6411480        5.0895400
 H       -1.4998410        3.4342980        5.1001560
 C        5.5198730        0.9600470        3.4501880
 H        5.6353580        1.4117030        4.4453630
 H        6.4146520        1.2005240        2.8583420
 H        5.5030400       -0.1342520        3.5875190
 H       -3.4940430        2.1156970        0.2257260
 C       -0.8269890        2.2840270       -3.6828550
 O       -0.7540640        1.3568390       -4.7211030
 O        0.0502770        3.1523250       -3.4926840
 C        0.4747050        1.3878450       -5.5502270
 H        0.3289980        0.5880660       -6.2840950
 H        0.5813100        2.3640230       -6.0435280
 H        1.3486010        1.1882760       -4.9188110
