79
M00000210_2D_DFT last geometry from G09 out file
 Ru        0.9537590        0.5595760       -0.6628060
 C       -0.4714610       -0.4554380       -1.1531630
 Cl        1.2975100       -0.2678540        1.5715940
 Cl        1.8980640        1.0758140       -2.8126780
 H       -1.5293300       -0.1893520       -1.2050720
 H       -0.2136130       -1.5008940       -1.4255840
 C        0.2335350        2.3407830       -0.3828400
 N        1.0632960        3.3746490        0.0784670
 N       -0.9815390        2.9201730       -0.7194230
 C        0.3349430        4.7008750        0.1316740
 C        2.1949530        3.1903460        0.9612450
 C       -0.8759720        4.4313350       -0.7854030
 H       -0.0143220        4.8575820        1.1610630
 H       -0.6070970        4.6967980       -1.8163330
 C        1.9278510        2.9965290        2.3425520
 C        3.5562360        3.3036160        0.5434270
 C        2.9123520        2.8688940        3.3236090
 C        4.2347980        2.9581560        2.8686150
 H        2.6628370        2.6906530        4.3663710
 C        4.5697880        3.1739600        1.5289160
 H        5.6191600        3.2511340        1.2567950
 C       -2.1594400        2.2735800       -1.2213600
 C       -2.3985890        2.2478030       -2.6180640
 C       -3.1564310        1.7356370       -0.3492540
 C       -3.5407430        1.6910940       -3.2044350
 C       -4.4854180        1.1551080       -2.3172340
 H       -3.6802900        1.6781680       -4.2826690
 C       -4.3225980        1.1702750       -0.9274450
 H       -5.1049910        0.7547190       -0.2952470
 F       -1.4503840        2.8239710       -3.4732920
 C       -3.0286540        1.7605720        1.1699340
 C       -2.8901010        0.3618070        1.8394510
 H       -2.1770610        2.3803760        1.4667030
 H       -3.9299910        2.2490110        1.5780060
 C       -2.7988650        0.4614720        3.3810120
 H       -3.7493050       -0.2744760        1.5663750
 H       -1.9861070       -0.1370200        1.4645900
 C       -2.6326020       -0.9139170        4.0639520
 H       -3.7036880        0.9604210        3.7733010
 H       -1.9428150        1.1032310        3.6488040
 H       -2.5742660       -0.8071790        5.1587480
 H       -1.7099190       -1.4104160        3.7262290
 H       -3.4800520       -1.5814770        3.8376340
 C        1.1689450        5.9053690       -0.3001250
 C        1.7351800        6.7640020        0.6707560
 N        1.3177380        6.1272260       -1.6400080
 C        2.4936710        7.8755700        0.2479600
 H        1.5842260        6.5672420        1.7322020
 C        2.6592820        8.1017780       -1.1343860
 H        2.9408670        8.5493600        0.9799710
 C        2.0482650        7.2028320       -2.0368880
 H        3.2358680        8.9491200       -1.5060540
 H        2.1412470        7.3429450       -3.1156660
 F       -5.6539710        0.5905990       -2.8549380
 C       -2.1367140        5.1940220       -0.3892550
 C       -2.9472150        5.7885230       -1.3845790
 N       -2.4217900        5.3080390        0.9429720
 C       -4.0955000        6.5100150       -0.9970230
 H       -2.6816280        5.6907850       -2.4371450
 C       -4.3993490        6.6217500        0.3756080
 H       -4.7344550        6.9756720       -1.7484100
 C       -3.5311740        6.0065200        1.3046630
 H       -5.2751420        7.1718150        0.7204840
 H       -3.7217290        6.0746060        2.3776670
 F        0.5894180        2.9456210        2.7631790
 C        3.9524510        3.6270720       -0.8946360
 C        5.0971900        2.7628450       -1.4896690
 H        3.0764410        3.5490740       -1.5455130
 H        4.2723260        4.6841780       -0.9216910
 C        5.4489440        3.1815600       -2.9375090
 H        6.0065900        2.8414550       -0.8712330
 H        4.7948890        1.7048390       -1.4823240
 C        6.5756120        2.3261740       -3.5576660
 H        5.7502040        4.2450960       -2.9484040
 H        4.5464410        3.1026420       -3.5646680
 H        6.8006940        2.6524680       -4.5854310
 H        6.2866750        1.2642640       -3.6004630
 H        7.5064870        2.3984760       -2.9716800
 F        5.2694760        2.8404540        3.8118350
