83
Mol_000205_2D_DFT last geometry from G09 out file
 Ru        0.2537690        0.1924450       -0.0964380
 C       -1.0816370       -0.6102410       -1.0251840
 Cl       -0.5401690       -0.1915820        2.1575770
 Cl        1.9551340        0.1652170       -1.8437140
 H       -1.9321500       -0.1754120       -1.5528390
 H       -0.9990320       -1.7197990       -1.0560790
 C       -0.0893030        2.1179020       -0.1790310
 N        0.7929790        2.9797930        0.4494450
 N       -1.0346490        2.8774810       -0.8397280
 C        0.5038880        4.4330990        0.1731330
 C        1.8583250        2.5730130        1.3448670
 C       -0.7256900        4.3670430       -0.7926810
 H        0.2052210        4.8844300        1.1274600
 H       -0.4116650        4.6320520       -1.8076580
 C        1.7612870        2.5758220        2.7759730
 C        3.0894570        2.1670950        0.7804320
 C        2.8743650        2.1874510        3.5534740
 C        4.1154780        1.7823470        2.9796930
 H        2.7440230        2.1830530        4.6286730
 C        4.1899430        1.7773520        1.5549970
 H        5.0937660        1.4635950        1.0388940
 C       -2.1582500        2.3500710       -1.5728660
 C       -2.1760240        2.1359930       -2.9849510
 C       -3.3099390        1.9723610       -0.8445240
 C       -3.3350960        1.6204180       -3.6080880
 C       -4.5181970        1.2978820       -2.8787400
 H       -3.2892670        1.4519210       -4.6782750
 C       -4.4619910        1.4659950       -1.4598170
 H       -5.3049360        1.1929090       -0.8300010
 C       -0.9803410        2.4068290       -3.8515450
 O       -0.8578000        1.4391580       -4.8520840
 O       -0.1762510        3.3567740       -3.7366780
 C        0.3454810        1.5345290       -5.7118330
 H        0.3687670        2.4967190       -6.2420980
 H        1.2477550        1.4260020       -5.0964320
 H        0.2480480        0.6988530       -6.4132900
 H       -3.2795750        2.0528700        0.2400930
 C        1.7612420        5.2183940       -0.3388580
 C        1.5461080        6.7522050       -0.2397610
 C        2.2720200        4.8245830       -1.7462820
 H        2.5590820        4.9749030        0.3830170
 H        0.8043280        7.1134970       -0.9676300
 H        2.4907210        7.2767180       -0.4509840
 H        1.2150590        7.0544140        0.7665160
 H        3.2787790        5.2425850       -1.9042080
 H        1.6255560        5.2112790       -2.5453580
 H        2.3316240        3.7376770       -1.8777530
 N       -5.6648250        0.8201730       -3.5202420
 C       -5.6698210        0.6100610       -4.9753500
 C       -6.8496660        0.4465400       -2.7344860
 H       -4.9320140       -0.1498730       -5.2885160
 H       -5.4517450        1.5437080       -5.5210990
 H       -6.6608420        0.2647880       -5.2910920
 H       -6.6422030       -0.3869300       -2.0397550
 H       -7.6506270        0.1268480       -3.4106890
 H       -7.2307720        1.2972220       -2.1443520
 C       -1.8735170        5.3687410       -0.4055050
 C       -2.6910270        5.0508090        0.8713370
 C       -2.8037970        5.7160880       -1.5988660
 H       -1.3115070        6.2940150       -0.1896370
 H       -3.2225290        5.9588390        1.1985080
 H       -2.0611420        4.7118390        1.6998150
 H       -3.4516340        4.2837670        0.6838930
 H       -2.2253030        6.0029720       -2.4908710
 H       -3.4508880        6.5667530       -1.3322320
 H       -3.4564570        4.8787420       -1.8756780
 C        0.5091120        2.9632820        3.5038240
 O        0.4765190        2.4348570        4.7980980
 O       -0.4176890        3.6801360        3.0655830
 C       -0.7574010        2.6789920        5.5725170
 H       -0.5848280        2.1781430        6.5315220
 H       -0.9238810        3.7562630        5.7140630
 H       -1.6189780        2.2395460        5.0522590
 H        3.1751090        2.1334240       -0.3007390
 N        5.1979780        1.4027340        3.7783820
 C        5.0653910        1.3617920        5.2421310
 C        6.4468320        0.9424300        3.1546930
 H        4.8180960        2.3537810        5.6572610
 H        6.0159150        1.0444470        5.6860160
 H        4.2857960        0.6507290        5.5674560
 H        6.2934970        0.0381990        2.5392260
 H        7.1767720        0.6973380        3.9345940
 H        6.8925380        1.7214040        2.5127970
