87
Mol_000206_2D_DFT last geometry from G09 out file
 Ru        0.3059050       -0.3110130       -0.1165620
 C       -0.9480560       -1.0690720       -1.1874450
 Cl       -0.6966540       -0.6668960        2.0524250
 Cl        2.1415840       -0.4717320       -1.7344160
 H       -1.6850500       -0.5918070       -1.8377420
 H       -0.9290220       -2.1816580       -1.1911680
 C        0.0047290        1.6256940       -0.2264680
 N        0.8399460        2.4927680        0.4647040
 N       -0.8782790        2.3873770       -0.9776390
 C        0.6415270        3.9303210        0.0724040
 C        1.8259430        2.1476690        1.4705630
 C       -0.5726650        3.8731730       -0.9087660
 H        0.3648530        4.4704270        0.9862790
 H       -0.2648040        4.1709360       -1.9192760
 C        1.7666890        2.6589440        2.8105680
 C        2.9607690        1.3860940        1.1078350
 C        2.8287190        2.3753430        3.7001650
 C        3.9627590        1.5887530        3.3386820
 H        2.7442090        2.7530390        4.7141680
 C        3.9965190        1.0887380        2.0039860
 H        4.8281840        0.4885660        1.6441510
 C       -2.0398600        1.9013030       -1.6835910
 C       -2.2233050        2.0408180       -3.1014210
 C       -3.0982030        1.3532780       -0.9236210
 C       -3.4750790        1.6683560       -3.6592140
 C       -4.5512840        1.1443150       -2.8841540
 H       -3.5931020        1.7566180       -4.7332860
 C       -4.3226020        0.9686350       -1.4848180
 H       -5.0869500        0.5560850       -0.8320860
 N       -1.1983970        2.5803120       -3.9419160
 C        0.0633050        1.8108660       -4.0603610
 C       -1.5923480        3.2182540       -5.2096340
 H        0.8680350        2.4681520       -4.4205050
 H       -0.0386770        0.9699380       -4.7765090
 H        0.3648170        1.3954680       -3.1001110
 H       -2.4611100        3.8710620       -5.0564730
 H       -1.8312720        2.4982200       -6.0214090
 H       -0.7548200        3.8388830       -5.5632660
 H       -2.9460490        1.2228250        0.1466310
 C        1.9553530        4.5950020       -0.4671470
 C        1.7940670        6.1339480       -0.5764680
 C        2.5098060        3.9999860       -1.7830010
 H        2.7100430        4.4109190        0.3158580
 H        1.4562120        6.5774400        0.3736310
 H        1.0761170        6.4201540       -1.3604770
 H        2.7594510        6.5959970       -0.8340920
 H        3.5096590        4.4146950       -1.9844330
 H        1.8755670        4.2470110       -2.6468460
 H        2.6062690        2.9087990       -1.7320360
 N       -5.7757770        0.7992200       -3.4750830
 C       -6.8346120        0.1770150       -2.6681120
 C       -5.9891520        0.9873340       -4.9150150
 H       -6.5022190       -0.7713200       -2.2102600
 H       -7.6982360       -0.0453040       -3.3056520
 H       -7.1792850        0.8433590       -1.8581970
 H       -5.3211940        0.3519930       -5.5255820
 H       -5.8290560        2.0370680       -5.2158250
 H       -7.0226410        0.7253100       -5.1699640
 C       -1.7225130        4.8642140       -0.4882230
 C       -2.4972980        4.4920340        0.7980760
 C       -2.6936410        5.2405650       -1.6364980
 H       -1.1607090        5.7882640       -0.2610820
 H       -3.1131500        5.3469260        1.1191440
 H       -1.8224130        4.2394680        1.6224250
 H       -3.1713090        3.6436870        0.6340340
 H       -3.3026160        6.1084900       -1.3368560
 H       -3.3793880        4.4230630       -1.8859400
 H       -2.1465890        5.5180840       -2.5504480
 N        0.6513940        3.4650410        3.2619240
 C       -0.5372600        2.6920520        3.7018720
 C        0.9598000        4.5916050        4.1658710
 H       -1.3990050        3.3680670        3.8057290
 H       -0.3711190        2.1956790        4.6809280
 H       -0.7770380        1.9140390        2.9739810
 H        0.1062400        5.2880640        4.1645760
 H        1.8458440        5.1319790        3.8070330
 H        1.1367000        4.2967020        5.2226820
 H        3.0505540        1.0323330        0.0845540
 N        4.9893680        1.3178700        4.2543480
 C        6.0970790        0.4295660        3.8750560
 C        4.9165570        1.8288230        5.6283860
 H        6.7741550        0.3030740        4.7279230
 H        6.6860310        0.8430020        3.0379470
 H        5.7387730       -0.5716810        3.5775600
 H        4.0516360        1.4195320        6.1822360
 H        4.8454650        2.9301340        5.6509920
 H        5.8252750        1.5468460        6.1728640
