89
Mol_000204_2D_DFT last geometry from G09 out file
 Ru        0.0746810       -0.1760070        0.2234600
 C       -1.1572350       -0.9645110       -0.8510860
 Cl       -1.0344990       -0.3085140        2.3619570
 Cl        1.9697960       -0.5368820       -1.2899560
 H       -1.8203750       -0.5192860       -1.5965740
 H       -1.1999840       -2.0715200       -0.7497350
 C       -0.1397910        1.7551640       -0.0355310
 N        0.6840360        2.6428360        0.6465880
 N       -0.9484910        2.4959410       -0.8855920
 C        0.5583870        4.0581320        0.1538400
 C        1.6077500        2.3311420        1.7202790
 C       -0.5863090        3.9705670       -0.9065700
 H        0.2372100        4.6635800        1.0102300
 H       -0.1945500        4.1775720       -1.9106520
 C        1.5161550        2.9538920        3.0107510
 C        2.6994580        1.4705570        1.4610920
 C        2.5383260        2.6756240        3.9564280
 C        3.6177150        1.7997190        3.7061940
 H        2.4688330        3.1391620        4.9402100
 C        3.6745210        1.1884670        2.4326460
 H        4.4856250        0.5077230        2.1738260
 C       -2.0904070        2.0037420       -1.6205170
 C       -2.1815120        2.0493210       -3.0533690
 C       -3.2032170        1.5479240       -0.8751680
 C       -3.4270600        1.6777080       -3.6409860
 C       -4.5427930        1.2404370       -2.8956280
 H       -3.5155790        1.7042220       -4.7258870
 C       -4.4062290        1.1622210       -1.4873040
 H       -5.2301810        0.8181200       -0.8626530
 N       -1.0967140        2.4902350       -3.8694910
 C        0.1529330        1.6918990       -3.8515800
 C       -1.3999380        3.0359460       -5.2047240
 H        0.3827720        1.3354490       -2.8489250
 H        0.9938160        2.3078570       -4.2016010
 H        0.0770940        0.8066920       -4.5147840
 H       -1.6163920        2.2595150       -5.9678810
 H       -0.5252770        3.6037150       -5.5564900
 H       -2.2542110        3.7230490       -5.1550310
 H       -3.1083850        1.4965900        0.2082240
 C        1.9263690        4.6507540       -0.3339740
 C        1.8201510        6.1832560       -0.5500550
 C        2.5502640        3.9580020       -1.5685370
 H        2.6205270        4.4992470        0.5095150
 H        2.8145880        6.6020810       -0.7668400
 H        1.4318970        6.6956800        0.3443940
 H        1.1670710        6.4369160       -1.3990070
 H        2.6125490        2.8700510       -1.4443300
 H        3.5728930        4.3338780       -1.7260670
 H        1.9835440        4.1651920       -2.4879420
 C       -5.8420920        0.8427640       -3.6104970
 C       -7.0332710        1.7559900       -3.2053890
 C       -6.1877140       -0.6582890       -3.4009430
 H       -5.6792450        0.9874710       -4.6922120
 H       -7.9324290        1.4937400       -3.7845810
 H       -6.8030910        2.8155080       -3.3940650
 H       -7.2793700        1.6498190       -2.1383810
 H       -7.0833560       -0.9309810       -3.9807700
 H       -6.3922740       -0.8829460       -2.3436340
 H       -5.3598080       -1.3051440       -3.7281870
 C       -1.7162660        5.0366360       -0.6456990
 C       -2.6025850        4.7977480        0.5997520
 C       -2.5815410        5.3709550       -1.8885330
 H       -1.1286980        5.9496040       -0.4420360
 H       -3.1990650        5.7002450        0.8060040
 H       -2.0064860        4.5830120        1.4928650
 H       -3.3032160        3.9690340        0.4470310
 H       -3.3039990        4.5795800       -2.1189830
 H       -1.9580690        5.5348620       -2.7804820
 H       -3.1494810        6.2966360       -1.7046010
 N        0.4328060        3.8465570        3.3499210
 C       -0.8366320        3.1789820        3.7381920
 C        0.7561870        4.9905300        4.2280010
 H       -0.7714450        2.7248710        4.7482830
 H       -1.0838910        2.3815580        3.0344440
 H       -1.6515230        3.9177100        3.7493260
 H        0.8479560        4.7271040        5.3027970
 H       -0.0493280        5.7367800        4.1446300
 H        1.6949080        5.4610900        3.9069060
 H        2.8041360        1.0389090        0.4696470
 C        4.6599490        1.5172830        4.7967050
 C        6.0920160        1.9424740        4.3674090
 C        4.6258590        0.0314300        5.2536520
 H        4.3916890        2.1302070        5.6743680
 H        6.4481260        1.3550840        3.5080440
 H        6.8019590        1.7882760        5.1950480
 H        6.1228320        3.0057450        4.0847770
 H        4.9116770       -0.6484170        4.4373930
 H        3.6185240       -0.2555140        5.5903360
 H        5.3261160       -0.1308610        6.0880950
