50
Mol_000280_2D_DFT last geometry from G09 out file
 Ru       -1.0729420        0.4149010        0.9049770
 C       -0.2211610        0.4168980        2.5099440
 Cl        0.1732970       -1.1672040       -0.3999320
 Cl       -3.2004310        1.2716690        1.6784520
 H        0.3780310        1.2153090        2.9592330
 H       -0.3871490       -0.4836840        3.1371030
 C       -0.4157480        2.0611430        0.1304480
 N        0.5930030        2.9263980        0.5501410
 N       -1.0369790        2.6701170       -0.9585500
 C        0.6728270        4.1374420       -0.3243380
 C        1.7543010        2.5949760        1.3227960
 C       -0.6962350        4.1606570       -1.0528560
 H        1.5089600        4.0184830       -1.0328200
 H        0.8426600        5.0303540        0.2821020
 C       -0.5935670        4.6815580       -2.5083640
 C       -1.7737930        4.9805100       -0.2697040
 C       -0.3371060        6.2097630       -2.5642800
 H        0.2000750        4.1476110       -3.0464800
 H       -1.5390650        4.4692310       -3.0306260
 C       -1.4178780        7.0058930       -1.7983670
 H        0.6579650        6.4429440       -2.1479320
 H       -0.3102580        6.5230330       -3.6207250
 C       -1.5425940        6.5104500       -0.3397870
 H       -2.3888050        6.8879090       -2.3105470
 H       -1.1793510        8.0818670       -1.8154520
 H       -2.3804930        7.0175090        0.1658460
 H       -0.6352520        6.7884890        0.2222080
 H       -1.8066250        4.6435980        0.7758930
 H       -2.7569920        4.7562560       -0.7093050
 C        2.1411610        3.3426790        2.4644970
 C        2.6105320        1.5458140        0.8974870
 C        3.3321210        3.0669310        3.1614010
 C        4.1623430        2.0131360        2.7252410
 H        3.5964760        3.6581380        4.0368030
 C        3.7947920        1.2486510        1.5972490
 H        4.4272890        0.4280000        1.2577270
 C       -1.9369910        2.0038350       -1.8657010
 C       -1.4566330        1.3249300       -3.0203640
 C       -3.3393820        2.0381220       -1.6630790
 C       -2.3303510        0.6855830       -3.9187700
 C       -3.7207400        0.7305690       -3.6880450
 H       -1.9269070        0.1607750       -4.7831140
 C       -4.2244230        1.4110260       -2.5611210
 H       -5.2969750        1.4408680       -2.3676610
 H       -3.7208160        2.5219530       -0.7691980
 H       -4.3962760        0.2309130       -4.3835400
 Cl        1.0730980        4.6693130        3.1100940
 H        2.3205670        0.9573500        0.0295260
 H        5.0824810        1.7948650        3.2684400
 Cl        0.3165400        1.2543690       -3.4055530
