83
Mol_000283_2D_DFT last geometry from G09 out file
 Ru        0.7044290        0.2992890       -0.9232060
 C       -0.8807460       -0.5855040       -1.2801340
 Cl        0.7116640       -0.7903310        1.3107970
 Cl        1.0298370        0.6991520       -3.3386360
 H       -1.5870270       -0.9341480       -0.5099760
 H       -1.1130690       -0.9246270       -2.3066810
 C       -0.0463840        1.9849440       -0.3716570
 N        0.8398280        2.9488000        0.1391880
 N       -1.2868230        2.5716470       -0.5274580
 C        1.8929960        2.6093670        1.0778510
 C        0.3155690        4.3505410       -0.2728830
 C        2.9597740        1.6981350        0.7823010
 C        1.8244640        3.1140350        2.3987550
 C        3.9264980        1.4248230        1.7742420
 C        3.8792300        1.9758280        3.0739960
 H        4.7357590        0.7355800        1.5415030
 C        2.7959630        2.8271090        3.3732640
 H        2.6851400        3.2448740        4.3751970
 C       -1.2670830        4.0733270       -0.0999560
 C       -2.4074230        1.9426310       -1.2096470
 C       -3.5796830        1.4339450       -0.5381420
 C       -2.3630200        1.9083580       -2.6250620
 C       -4.6482840        0.9682720       -1.3632020
 C       -4.6078520        0.9693570       -2.7728660
 H       -5.5345910        0.5628370       -0.8798990
 C       -3.4314540        1.4380790       -3.4037570
 H       -3.3426810        1.4311210       -4.4909520
 C       -5.7800950        0.4513190       -3.5909860
 H       -6.1816210        1.2362880       -4.2523740
 H       -6.6019080        0.0988090       -2.9528970
 H       -5.4739580       -0.3866630       -4.2375100
 C        0.7827210        4.5213020       -1.7786750
 C        0.6119210        5.8657800       -2.5349880
 H        1.8578130        4.3118940       -1.7618750
 H        0.3455830        3.7171440       -2.3817060
 H        0.9878970        6.7301720       -1.9726460
 H       -0.4218210        6.0822820       -2.8240820
 H        1.1982300        5.8076770       -3.4663420
 C        0.8529010        5.5428610        0.5693900
 C        2.3526270        5.9162590        0.4504340
 H        0.2613500        6.4205120        0.2685320
 H        0.6339470        5.3908850        1.6268390
 H        2.6428790        6.2104850       -0.5650730
 H        3.0127200        5.1027410        0.7703700
 H        2.5537550        6.7772460        1.1079900
 C       -2.1264610        4.9686020       -1.0478670
 C       -3.6716650        4.9724660       -0.9348080
 H       -1.7821310        6.0006050       -0.8864010
 H       -1.8777020        4.7196390       -2.0845600
 H       -4.1161850        4.0278450       -1.2584310
 H       -4.0635420        5.7622040       -1.5964380
 H       -4.0336090        5.1878250        0.0773280
 C       -1.7906710        4.1238490        1.3826780
 C       -2.0661700        5.4837470        2.0796280
 H       -2.7319750        3.5644420        1.3682620
 H       -1.1125350        3.5298380        2.0094440
 H       -2.6536190        6.1718020        1.4590750
 H       -1.1606590        6.0171840        2.3903360
 H       -2.6534270        5.2929510        2.9926860
 N        3.0217350        1.0181550       -0.5184990
 C        3.6629830        1.8883020       -1.5645180
 C        3.7181860       -0.3141780       -0.5146610
 H        3.5554690        1.4114580       -2.5429880
 H        4.7322600        2.0442800       -1.3310520
 H        3.1629750        2.8550930       -1.5999960
 H        3.3141000       -0.9414430        0.2856630
 H        4.8130970       -0.2200530       -0.4017270
 H        3.5258400       -0.7927240       -1.4849500
 H        0.9723420        3.7180590        2.6900240
 C        4.9286400        1.6163940        4.1122450
 H        5.9462120        1.6651540        3.6948600
 H        4.7796950        0.5888770        4.4841450
 H        4.8876810        2.2901140        4.9792080
 N       -3.7446310        1.4344150        0.8760160
 C       -5.1084700        1.4174360        1.4322990
 C       -2.7720980        0.7314790        1.7437970
 H       -5.5754280        0.4109070        1.4386900
 H       -5.7632680        2.1020300        0.8778420
 H       -5.0621260        1.7612940        2.4768630
 H       -1.7650020        0.7657770        1.3357930
 H       -3.0455800       -0.3337760        1.8718240
 H       -2.7566100        1.1983190        2.7405000
 H       -1.4549240        2.2453000       -3.1175910
