75
Mol_000281_2D_DFT last geometry from G09 out file
 Ru        0.5836020       -0.3033560       -0.3932440
 C       -0.6173310       -1.0861000       -1.5095620
 Cl       -0.2832230       -0.9564950        1.7562210
 Cl        2.3773610       -0.1218010       -2.0308890
 H       -1.4190910       -0.6278260       -2.0932420
 H       -0.4793460       -2.1831800       -1.6256280
 C        0.0497370        1.5582030       -0.3178320
 N        0.7826740        2.4686760        0.4509070
 N       -0.9594820        2.2742970       -0.9571560
 C        0.3733940        3.8709430        0.2165610
 C        1.8193450        2.1736050        1.4229470
 C       -0.8928780        3.7332310       -0.6691590
 H        0.1794130        4.3467650        1.1868570
 H       -0.8135810        4.2798810       -1.6177370
 C        1.7099010        2.6052100        2.7844410
 C        3.0220930        1.5681580        1.0005250
 C        2.7978370        2.3826910        3.6561140
 C        4.0029530        1.7364470        3.2446910
 H        2.6872990        2.7001870        4.6876330
 C        4.0858240        1.3284470        1.8794880
 H        4.9806860        0.8561120        1.4835840
 C       -2.0646040        1.7818690       -1.7471720
 C       -2.2559970        2.1853760       -3.1089480
 C       -3.0753230        1.0332370       -1.1047630
 C       -3.4582200        1.8097400       -3.7570190
 C       -4.4807110        1.0489340       -3.1141330
 H       -3.5848240        2.1011550       -4.7935670
 C       -4.2519900        0.6513210       -1.7590640
 H       -4.9911150        0.0795560       -1.2052140
 N       -1.2834290        3.0003840       -3.7738070
 C        0.0450510        2.3947230       -4.0508220
 C       -1.7428550        3.8833520       -4.8626700
 H        0.0203120        1.7673820       -4.9646500
 H        0.3756210        1.7674920       -3.2233290
 H        0.7919580        3.1877980       -4.1973710
 H       -2.6677260        4.3974810       -4.5708370
 H       -1.9177950        3.3565380       -5.8240550
 H       -0.9695350        4.6448240       -5.0435800
 H       -2.9319880        0.7526490       -0.0621190
 C        1.4697930        4.7210410       -0.4787380
 F        2.0230290        4.1174310       -1.6269200
 F        0.9368040        5.9693380       -0.8995350
 F        2.5385040        5.0215760        0.3840590
 N       -5.6560720        0.6969050       -3.7875010
 C       -6.6765350       -0.1222020       -3.1165830
 C       -5.8923420        1.1502980       -5.1647520
 H       -6.2660010       -1.0888580       -2.7784620
 H       -7.4930410       -0.3347680       -3.8160920
 H       -7.1088830        0.3916180       -2.2400750
 H       -5.1451970        0.7429400       -5.8691230
 H       -5.8719610        2.2512080       -5.2426460
 H       -6.8806040        0.8128120       -5.4971330
 C       -2.1610830        4.3055740        0.0275640
 F       -2.6549130        3.5091520        1.0794680
 F       -1.8875830        5.5816490        0.5849080
 F       -3.2236140        4.5007440       -0.8748790
 N        0.5261650        3.2974990        3.2441070
 C       -0.6379840        2.4287020        3.5651440
 C        0.7200810        4.3700390        4.2438930
 H       -1.5490740        3.0409820        3.6177710
 H       -0.5057460        1.9107710        4.5367510
 H       -0.7687130        1.6633100        2.7977680
 H       -0.1850310        4.9963010        4.2648750
 H        1.5707690        5.0024760        3.9582210
 H        0.8874990        4.0002040        5.2770400
 H        3.1452550        1.3085970       -0.0476910
 N        5.0542570        1.5146580        4.1416040
 C        4.9549660        1.9661200        5.5355450
 C        6.2583900        0.7942510        3.7026620
 H        4.7978150        3.0567560        5.6027820
 H        5.8872120        1.7337970        6.0630050
 H        4.1304420        1.4670850        6.0758600
 H        6.9366470        0.6620870        4.5534950
 H        6.8061660        1.3447690        2.9177510
 H        6.0132620       -0.2073700        3.3099560
