66
Mol_000279_2D_DFT last geometry from G09 out file
 Ru       -0.1778480        0.3274100        1.2999450
 C       -1.6335570       -0.5180910        0.6195920
 Cl       -1.1728850        1.0340890        3.4134460
 Cl        1.5779820       -0.7271320        0.0277050
 H       -2.3684530       -0.1664760       -0.1082080
 H       -1.7857680       -1.5435870        1.0221960
 C       -0.1039850        2.0627850        0.4006570
 N        0.9894730        2.9003660        0.5888320
 N       -1.0191820        2.7355930       -0.4091840
 C        0.7470630        4.2684420        0.0623150
 C        2.1575090        2.6990290        1.4203360
 C       -0.5086380        4.1319540       -0.8421400
 H        1.6331610        4.6131750       -0.4770300
 H        0.5630960        4.9460430        0.9113220
 C       -0.1469670        4.1538190       -2.3603170
 C       -1.5470300        5.2492580       -0.5448990
 C        0.3212160        5.5493250       -2.8462510
 H        0.6305100        3.4060680       -2.5696080
 H       -1.0347390        3.8645540       -2.9396580
 C       -0.7117750        6.6505780       -2.5179560
 H        1.2908140        5.8108640       -2.3895730
 H        0.4966340        5.5029030       -3.9338660
 C       -1.0615110        6.6444540       -1.0127770
 H       -1.6297000        6.4798550       -3.1072320
 H       -0.3221140        7.6379490       -2.8155040
 H       -1.8517920        7.3838830       -0.8019980
 H       -0.1800090        6.9610470       -0.4292690
 H       -1.7656680        5.2665550        0.5320020
 H       -2.4867340        5.0111780       -1.0579120
 C        1.9846790        2.4420730        2.7984040
 C        3.4831000        2.8963810        0.8901520
 C        3.0828490        2.3431910        3.6750150
 C        4.3817020        2.5471510        3.1728290
 H        2.9134170        2.1343650        4.7316370
 C        4.5692650        2.8228980        1.8053250
 H        5.5835680        2.9541460        1.4327620
 C       -2.0386700        2.0717000       -1.2063750
 C       -1.5725360        1.2102940       -2.2310360
 C       -3.4575500        2.3040260       -1.0620300
 C       -2.4354290        0.5974220       -3.1555820
 C       -3.8174550        0.8617490       -3.0601010
 H       -2.0369670       -0.0598510       -3.9283300
 C       -4.3086060        1.6852860       -2.0346390
 H       -5.3844860        1.8229420       -1.9558560
 N       -4.0330900        3.1183640       -0.0606350
 C       -5.3907580        3.6517120       -0.2518720
 C       -3.6617300        2.9728870        1.3619380
 H       -5.5286540        4.5041530        0.4295620
 H       -6.1910680        2.9172870       -0.0281170
 H       -5.5285920        4.0151110       -1.2789580
 H       -4.3650760        2.2986940        1.8873240
 H       -3.6907330        3.9519160        1.8651760
 H       -2.6641440        2.5577440        1.4746300
 H       -4.5179130        0.4075400       -3.7635900
 H        0.9770180        2.3544700        3.1965010
 N        3.7122920        3.2173860       -0.4851220
 C        4.9233860        3.9862010       -0.8256260
 C        3.3759960        2.2006930       -1.5099720
 H        4.7911540        4.4228130       -1.8276090
 H        5.8493520        3.3751790       -0.8526790
 H        5.0690740        4.8074830       -0.1116820
 H        3.1854060        2.6945070       -2.4758180
 H        2.4964730        1.6289690       -1.2142980
 H        4.2049410        1.4789590       -1.6503560
 H        5.2479200        2.4845610        3.8340190
 H       -0.5016420        1.0235100       -2.2909570
