97
Mol_000284_2D_DFT last geometry from G09 out file
 Ru        0.0608090        0.0445180        0.0900490
 C       -1.3678660       -0.8044710       -0.6386800
 Cl       -0.4952080       -0.1737700        2.4408580
 Cl        1.5128620       -0.2398520       -1.8324640
 H       -2.2345890       -0.3936470       -1.1593070
 H       -1.3095540       -1.9135600       -0.5760590
 C       -0.2864040        1.9564620       -0.1012300
 N        0.7245130        2.8775100        0.1689240
 N       -1.4331870        2.6545250       -0.4411520
 C        1.8661210        2.5569750        1.0338040
 C        0.3133180        4.3076100       -0.2732000
 C        3.2064360        2.3347160        0.5778330
 C        1.5934950        2.4960010        2.4249340
 C        4.1855070        2.0565950        1.5682080
 C        3.9204260        1.9907200        2.9538920
 H        5.2079350        1.8780760        1.2401770
 C        2.5892740        2.2184030        3.3715850
 H        2.3142040        2.1629580        4.4247140
 C       -1.2861560        4.1723740       -0.1226800
 C       -2.5490530        2.0993750       -1.1912910
 C       -3.7587620        1.6314140       -0.5919280
 C       -2.4058900        2.0422700       -2.6009120
 C       -4.7951690        1.2102230       -1.4681980
 C       -4.6783380        1.1839720       -2.8757820
 H       -5.7341640        0.8751510       -1.0272070
 C       -3.4413010        1.5908460       -3.4337750
 H       -3.2784460        1.5592480       -4.5113450
 C       -5.8485250        0.7082400       -3.7472670
 C       -5.5023050       -0.5915980       -4.5270070
 C       -6.3549320        1.8223450       -4.7056360
 H       -6.6830430        0.4634560       -3.0684130
 H       -4.6890560       -0.4270660       -5.2494930
 H       -6.3807410       -0.9484960       -5.0868310
 H       -5.1862800       -1.3927470       -3.8421170
 H       -5.5854700        2.1075120       -5.4386160
 H       -6.6406250        2.7267430       -4.1474060
 H       -7.2370820        1.4744570       -5.2653040
 C        0.8162990        4.4540510       -1.7621110
 C        0.7452500        5.8144920       -2.5088430
 H        1.8690440        4.1655590       -1.7360040
 H        0.3235160        3.6851670       -2.3727240
 H        1.0725880        6.6610350       -1.8920210
 H       -0.2518130        6.0527400       -2.8946240
 H        1.4217680        5.7684680       -3.3775800
 C        0.8998460        5.4224150        0.6461300
 C        2.3951300        5.8132680        0.5428220
 H        0.3086470        6.3274270        0.4461550
 H        0.7065690        5.1525770        1.6895430
 H        2.5674950        6.6894450        1.1886550
 H        2.7020530        6.0950110       -0.4713650
 H        3.0600840        5.0188840        0.8929720
 C       -2.0577050        5.0865820       -1.1253550
 C       -3.5976900        5.2259390       -1.0248050
 H       -1.6308960        6.0931510       -1.0117220
 H       -1.8230030        4.7685470       -2.1461220
 H       -3.9267420        5.9593410       -1.7788170
 H       -3.9357010        5.5946080       -0.0488820
 H       -4.1219930        4.2891630       -1.2338340
 C       -1.8405570        4.3528570        1.3432310
 C       -1.9896830        5.7611280        1.9831800
 H       -2.8417400        3.9142400        1.3193540
 H       -1.2577400        3.7151930        2.0204350
 H       -1.0532890        6.1557620        2.3917300
 H       -2.6987590        5.6874550        2.8234770
 H       -2.3904410        6.5108000        1.2892520
 C        3.6367380        2.4374160       -0.8865160
 C        4.8359750        1.5608440       -1.3312810
 H        3.8986850        3.4902840       -1.0977610
 H        2.7855000        2.1835510       -1.5250780
 C        5.0943670        1.6679450       -2.8509560
 H        4.6340680        0.5109370       -1.0706290
 H        5.7557200        1.8570080       -0.8005430
 H        5.3105700        2.7067170       -3.1521150
 H        5.9569010        1.0496930       -3.1457750
 H        4.2221080        1.3206540       -3.4243940
 H        0.5706090        2.6342330        2.7626920
 C        5.0422800        1.6589090        3.9462790
 C        4.8052090        0.2872820        4.6399740
 C        5.2619480        2.7888730        4.9902060
 H        5.9766590        1.5692610        3.3664240
 H        5.6566110        0.0332390        5.2907760
 H        4.6895400       -0.5161290        3.8973250
 H        3.8974560        0.3003370        5.2613300
 H        4.3804430        2.9228560        5.6348910
 H        5.4686900        3.7508850        4.4969280
 H        6.1173880        2.5484410        5.6406840
 C       -3.9812510        1.5535440        0.9197740
 C       -4.6152560        0.2359550        1.4477100
 H       -4.6369230        2.3879920        1.2299490
 H       -3.0258510        1.6889250        1.4352340
 C       -4.7647370        0.2425920        2.9853900
 H       -3.9830470       -0.6150250        1.1516830
 H       -5.6062240        0.0714590        0.9950610
 H       -3.7852680        0.3418210        3.4755480
 H       -5.4060540        1.0729000        3.3247590
 H       -5.2203940       -0.6962750        3.3370780
 H       -1.4562550        2.3404840       -3.0421520
