71
Mol_000179_2D_DFT last geometry from G09 out file
 Ru        0.2472730       -0.1322790        0.5538130
 C       -0.7991270       -0.9502850       -0.6822940
 Cl       -1.2332710        0.0318340        2.4624900
 Cl        2.3410640       -0.8439630       -0.4450380
 H       -1.1799050       -0.5509120       -1.6255770
 H       -0.9880630       -2.0287780       -0.4931940
 C        0.1332970        1.7735330        0.1071300
 N        1.0015390        2.6925790        0.6855670
 N       -0.7453130        2.4749530       -0.7020370
 C        2.0564410        2.3038030        1.6139190
 C        0.9324330        4.0621420       -0.0436520
 C        3.2871230        1.8680070        1.0648070
 C        1.9036530        2.3061040        3.0443910
 C        4.3766860        1.4953940        1.8737310
 C        4.2421560        1.5170510        3.2730550
 H        5.3035660        1.1621570        1.4061070
 C        3.0098420        1.8930350        3.8364990
 H        2.9089110        1.8809460        4.9200930
 C       -0.6191040        4.0135820       -0.4769330
 C       -1.8962530        1.8826160       -1.3484740
 C       -2.9949760        1.5248660       -0.5293090
 C       -1.9871950        1.6787830       -2.7666400
 C       -4.1811360        0.9978220       -1.0743910
 C       -4.2956180        0.8333210       -2.4690600
 H       -5.0016130        0.7191980       -0.4117990
 C       -3.2088510        1.1755260       -3.2939190
 H       -3.3018310        1.0195700       -4.3671470
 H       -5.2102780        0.4332710       -2.9086310
 C        1.9572140        3.9611640       -1.2429220
 C        2.2644330        5.1944130       -2.1366360
 H        2.9096450        3.6858440       -0.7761950
 H        1.6736290        3.1169650       -1.8821330
 H        1.5133620        5.3636750       -2.9158500
 H        3.2215200        5.0169520       -2.6530060
 H        2.3721790        6.1268820       -1.5675580
 C        1.2591950        5.2707370        0.8837740
 C        2.7307270        5.5603620        1.2742330
 H        0.8716410        6.1661390        0.3761640
 H        0.6889170        5.1539670        1.8059560
 H        3.3909810        5.7208880        0.4129840
 H        3.1693040        4.7683930        1.8905100
 H        2.7497600        6.4842670        1.8748980
 C       -0.9002430        4.8434350       -1.7691590
 C       -2.3624280        5.1241010       -2.2024080
 H       -0.4204240        5.8206640       -1.6194570
 H       -0.3733640        4.3756970       -2.6052640
 H       -2.9139110        5.7239490       -1.4694060
 H       -2.9429800        4.2157870       -2.3918130
 H       -2.3407970        5.7017790       -3.1411810
 C       -1.6566460        4.3637330        0.6572380
 C       -1.8803250        5.8352120        1.1041940
 H       -2.6207530        3.9972440        0.2827780
 H       -1.4181030        3.7697070        1.5440750
 H       -1.1749660        6.1460610        1.8812870
 H       -2.8892070        5.9202050        1.5386440
 H       -1.8188260        6.5614740        0.2832720
 H        3.3752150        1.7735910       -0.0111500
 C        0.6716170        2.7559050        3.8077790
 C        0.3312220        2.0504230        5.1224640
 O       -0.0379550        3.7210150        3.4216780
 H       -0.7266470        2.2307630        5.3435570
 H        0.5160500        0.9713540        5.0758340
 H        0.9243980        2.4751620        5.9495170
 H        5.0711790        1.2243860        3.9187450
 H       -2.8970180        1.6313030        0.5472430
 C       -0.8376550        1.8847790       -3.7301280
 C       -1.1524000        2.1972820       -5.1992880
 O        0.3623880        1.7744810       -3.3664780
 H       -0.2440740        2.5915580       -5.6699620
 H       -1.4325500        1.2784780       -5.7396840
 H       -1.9741540        2.9179490       -5.3117550
