49
Mol_000178_2D_DFT last geometry from G09 out file
 Ru       -0.3119910       -0.0173810       -0.3739250
 C        1.4334040       -0.3552060       -0.0046940
 Cl       -0.2440090        0.0873320       -2.7776690
 Cl       -1.3611100       -0.7264010        1.6907220
 H        2.2313870        0.3270400        0.2985600
 H        1.7194520       -1.4231110       -0.1195850
 C       -0.5234570        1.8868360       -0.0574790
 N        0.3164440        2.8451170        0.4816810
 N       -1.7308280        2.5206070       -0.3243100
 C       -0.3096390        4.2010220        0.5415650
 C        1.7131960        2.7553350        0.8151220
 C       -1.7823530        3.9172140        0.1900470
 H        0.1734060        4.8664000       -0.1910020
 H       -0.1897080        4.6220790        1.5458750
 H       -2.1673760        4.5939540       -0.5795830
 C        2.1916100        2.4945330        2.1338120
 C        2.6397120        3.0048290       -0.2264880
 C        3.5954180        2.4806770        2.3537460
 C        4.5065300        2.7432400        1.3156160
 H        3.9540510        2.2473010        3.3553070
 C        4.0266430        3.0054420        0.0145810
 H        4.7213380        3.1963440       -0.8045130
 C       -2.9229760        1.9482650       -0.9081730
 C       -3.3138830        2.1659140       -2.2678170
 C       -3.7656650        1.2003500       -0.0528820
 C       -4.5388350        1.5997070       -2.7114050
 C       -5.3659560        0.8533480       -1.8543790
 H       -4.8159670        1.7468010       -3.7539250
 C       -4.9762160        0.6490710       -0.5161250
 H       -5.5984650        0.0647510        0.1629640
 C       -2.5482160        2.8960210       -3.3387660
 O       -1.5239170        3.7164490       -2.8665080
 O       -2.8170720        2.8103690       -4.5584990
 C       -0.6896540        4.3567720       -3.9114700
 H        0.0378740        4.9591830       -3.3558370
 H       -0.1876550        3.5860580       -4.5108680
 H       -1.3055620        4.9879370       -4.5659800
 H       -3.4490270        1.0339430        0.9735350
 H       -2.4380520        3.9617340        1.0745870
 H       -6.2984350        0.4312710       -2.2309720
 C        1.3531520        2.1535700        3.3379040
 O        0.0902130        2.7333160        3.3262450
 O        1.7698440        1.4498420        4.2853800
 C       -0.8117170        2.3451860        4.4415400
 H       -1.7234610        2.9289390        4.2743400
 H       -1.0176800        1.2692070        4.3880830
 H       -0.3541170        2.5938800        5.4080410
 H        2.2555670        3.1739450       -1.2324160
 H        5.5781590        2.7342690        1.5178160
