107
Mol_000297_2D_DFT last geometry from G09 out file
 Ru        0.2766500       -0.4489790       -1.0717330
 C       -1.2765900       -1.3732450       -1.2418130
 Cl        1.0902830       -1.5589910        0.9098790
 Cl        0.6111140        0.1475010       -3.4095890
 H       -2.2949540       -1.0612680       -0.9987150
 H       -1.1610060       -2.4028830       -1.6435190
 C       -0.2148100        1.3573080       -0.4838950
 N        0.7734520        2.2705250       -0.0844810
 N       -1.4269770        2.0201220       -0.5597880
 C        1.8615430        1.9222590        0.8304930
 C        0.2686700        3.7287660       -0.3168460
 C        3.2732200        2.0030290        0.5448500
 C        1.4698110        1.5367630        2.1364470
 C        4.1700690        1.7155980        1.6171980
 C        3.7661520        1.3592740        2.9192370
 H        5.2380930        1.7444400        1.4117210
 C        2.3786290        1.2655270        3.1678060
 H        1.9999590        0.9669480        4.1449150
 C       -1.3171990        3.5032020       -0.0937970
 C       -2.6217180        1.4883500       -1.1962930
 C       -3.7710030        0.9913560       -0.4814690
 C       -2.6549570        1.5060050       -2.6094150
 C       -4.8987130        0.5975220       -1.2633580
 C       -4.9376370        0.6479950       -2.6732070
 H       -5.7729170        0.2073800       -0.7453830
 C       -3.7783380        1.0991990       -3.3467660
 H       -3.7380380        1.1356170       -4.4349050
 C       -6.1952640        0.1934300       -3.4272560
 C       -5.9214120       -1.0454250       -4.3254370
 C       -6.8331640        1.3513110       -4.2454010
 H       -6.9385860       -0.1142240       -2.6719210
 H       -6.8537950       -1.3896580       -4.7997180
 H       -5.5101470       -1.8788960       -3.7363120
 H       -5.2031390       -0.8146500       -5.1258970
 H       -7.7707950        1.0172250       -4.7165730
 H       -6.1619800        1.6987690       -5.0448350
 H       -7.0634790        2.2131400       -3.6007470
 C        0.7132380        4.0555570       -1.7971570
 C        0.5223140        5.4682230       -2.4262890
 H        0.2670560        3.3092730       -2.4685070
 H        1.7883700        3.8451980       -1.7996010
 C        1.4948780        5.6872170       -3.6106970
 H        0.6821870        6.2645090       -1.6850510
 H       -0.5010600        5.6007360       -2.8003380
 H        1.3666970        4.9088760       -4.3796610
 H        1.3202760        6.6635940       -4.0903990
 H        2.5453550        5.6581670       -3.2805060
 C        0.8290890        4.7660300        0.7038500
 C        2.2623010        5.3407970        0.5629100
 H        0.7439950        4.3438320        1.7117700
 H        0.1411030        5.6228540        0.6688730
 C        2.5503160        6.3833600        1.6691800
 H        2.4020150        5.8195950       -0.4151380
 H        3.0039370        4.5421140        0.6250800
 H        2.4766640        5.9351990        2.6731060
 H        3.5664690        6.7953040        1.5636070
 H        1.8437380        7.2287620        1.6269750
 C       -2.1640290        4.4704450       -0.9814660
 C       -3.7053830        4.5663340       -0.8159290
 H       -1.9633170        4.2432280       -2.0338990
 H       -1.7585260        5.4768340       -0.8020010
 C       -4.2860360        5.7055050       -1.6875360
 H       -3.9837390        4.7489140        0.2302490
 H       -4.1833120        3.6257700       -1.1074610
 H       -4.0693930        5.5445480       -2.7557060
 H       -5.3803340        5.7638360       -1.5766650
 H       -3.8697210        6.6865720       -1.4056840
 C       -1.8016750        3.5245880        1.4084750
 C       -2.0214460        4.8592230        2.1823480
 H       -1.1235750        2.8967580        1.9998480
 H       -2.7588040        2.9923660        1.3973200
 C       -2.9403960        4.6508860        3.4108980
 H       -2.4668330        5.6292180        1.5367770
 H       -1.0698040        5.2721850        2.5391810
 H       -2.5244000        3.8957400        4.0972740
 H       -3.0562970        5.5875930        3.9790390
 H       -3.9454960        4.3133670        3.1120810
 N        3.8165940        2.4070710       -0.7139440
 C        5.1898520        2.9439230       -0.7480930
 C        3.5065640        1.5964600       -1.9098420
 H        5.9780810        2.1639490       -0.6985350
 H        5.3519590        3.6523530        0.0741160
 H        5.3253780        3.4860420       -1.6959640
 H        2.4462680        1.3667890       -1.9671230
 H        4.0745710        0.6444760       -1.9226720
 H        3.7650290        2.1611120       -2.8172660
 H        0.4066810        1.4397220        2.3404830
 C        4.8141240        1.0469520        3.9958050
 C        4.7470050       -0.4372270        4.4538810
 C        4.7180340        2.0163640        5.2070080
 H        5.8079520        1.1986700        3.5407820
 H        5.5589130       -0.6574820        5.1649330
 H        4.8449140       -1.1195360        3.5967220
 H        3.7925060       -0.6639310        4.9515460
 H        3.7592590        1.9086320        5.7360420
 H        4.8090670        3.0649260        4.8846280
 H        5.5236420        1.8101070        5.9291880
 N       -3.8517060        0.9199880        0.9413060
 C       -5.1787790        0.9408490        1.5794980
 C       -2.8702530        0.1161250        1.7027040
 H       -5.6964380       -0.0407210        1.5679980
 H       -5.8282850        1.6823880        1.0970030
 H       -5.0546280        1.2317140        2.6337900
 H       -1.8880610        0.1380840        1.2345250
 H       -3.1850410       -0.9441310        1.7788160
 H       -2.7772470        0.5131170        2.7250280
 H       -1.7643050        1.8380670       -3.1360890
