61
M00000525_2D_DFT last geometry from G09 out file
 Ru        0.1688150       -0.2732380        0.2675380
 C       -1.1089290       -1.0009050       -0.7962810
 Cl       -0.9635030       -0.1860160        2.4074270
 Cl        2.0425070       -0.7307440       -1.2094120
 H       -1.7405020       -0.5355190       -1.5560360
 H       -1.2070800       -2.1032150       -0.6835620
 C        0.0688660        1.6480610       -0.0150440
 N        1.0611320        2.4683860        0.5003380
 N       -0.8645860        2.4620050       -0.6292780
 C        2.0947730        2.0073000        1.4119570
 C        0.9584830        3.8989110       -0.0562070
 C        3.3535340        1.5650180        0.9384930
 C        1.8409830        2.0214900        2.8054590
 C        4.3485290        1.1598020        1.8514010
 C        4.0984740        1.1877240        3.2401680
 H        5.3092040        0.8066860        1.4736180
 C        2.8384350        1.6130250        3.7136880
 H        2.6250230        1.6149500        4.7836370
 C       -0.6387250        3.9503360       -0.2627860
 C       -2.0336310        1.9931100       -1.3354300
 C       -3.2073560        1.6219840       -0.6351200
 C       -2.0059990        1.9010410       -2.7473920
 C       -4.3484630        1.1956150       -1.3460190
 C       -4.3271140        1.1266070       -2.7565250
 H       -5.2457940        0.9051460       -0.7972610
 C       -3.1488230        1.4723180       -3.4546560
 H       -3.1153370        1.4011310       -4.5430190
 H       -5.2110870        0.7944800       -3.3033010
 C        1.8025590        3.8806620       -1.3924330
 C        2.0662420        5.1830570       -2.1947960
 H        2.7822670        3.4803700       -1.1015480
 H        1.3676440        3.1267050       -2.0642680
 H        2.3498590        6.0309730       -1.5585450
 H        1.2123580        5.4986750       -2.8045000
 H        2.9047010        5.0029520       -2.8864940
 C        1.4698880        4.9804050        0.9446390
 C        2.9922070        5.1898410        1.1462230
 H        1.0451860        5.9395880        0.6142550
 H        1.0342550        4.7744010        1.9285210
 H        3.5230250        5.4305570        0.2174830
 H        3.4821480        4.3227290        1.5985980
 H        3.1354940        6.0407950        1.8316750
 C       -1.0685950        4.9275550       -1.4006680
 C       -2.5684790        5.2552290       -1.6150770
 H       -0.5505870        5.8783420       -1.2083680
 H       -0.6703960        4.5507140       -2.3495450
 H       -3.1603560        4.3808240       -1.9010890
 H       -2.6482090        5.9861380       -2.4360910
 H       -3.0401190        5.7073820       -0.7347410
 C       -1.4751720        4.1815240        1.0571880
 C       -1.6125710        5.5957750        1.6842840
 H       -2.4906590        3.8453830        0.8114850
 H       -1.1107260        3.4838000        1.8239160
 H       -1.7845150        6.3840300        0.9406100
 H       -0.7432560        5.8906560        2.2820660
 H       -2.4813250        5.5946990        2.3618370
 H        3.5384550        1.5004200       -0.1295270
 H        0.8609530        2.3207090        3.1704140
 H        4.8690100        0.8666090        3.9431780
 H       -3.2115770        1.6293760        0.4529880
 H       -1.0895390        2.1471380       -3.2828680
