73
Mol_000372_2D_DFT last geometry from G09 out file
 Ru       -0.2657920        0.2007590        0.5200380
 C       -1.6288140       -0.5493960       -0.4188010
 Cl       -1.2187060        0.4411240        2.7099860
 Cl        1.5303570       -0.7842220       -0.7434230
 H       -2.2061220       -0.1479900       -1.2528850
 H       -1.8399120       -1.6029920       -0.1385580
 C       -0.2783260        2.0844910        0.0164850
 N        0.7317670        2.9434580        0.4575920
 N       -1.1991370        2.8625350       -0.6906950
 C        0.4221430        4.3764340        0.1890660
 C        1.8818910        2.5170270        1.2412190
 C       -0.7458510        4.2825470       -0.8342580
 H        0.0878660        4.8184580        1.1339650
 H       -0.3901780        4.4144200       -1.8614150
 C        1.9062610        2.5847490        2.6712500
 C        3.0404900        2.0148840        0.5600350
 C        3.0498270        2.1115150        3.3664050
 C        4.1742530        1.5815660        2.7115180
 H        3.0216610        2.1586610        4.4533350
 C        4.1500920        1.5541240        1.3034970
 H        5.0046890        1.1664630        0.7564500
 C       -2.3420230        2.3678580       -1.4356900
 C       -2.2373450        2.0465760       -2.8195610
 C       -3.5935720        2.1471090       -0.7816110
 C       -3.3621100        1.5390040       -3.5162400
 C       -4.6107640        1.3544590       -2.8909180
 H       -3.2390720        1.2743170       -4.5659700
 C       -4.6958750        1.6518770       -1.5144030
 H       -5.6316360        1.4889990       -0.9846970
 C       -0.9867200        2.1136260       -3.6681600
 O       -0.4292030        3.3846230       -3.7060950
 O       -0.5752230        1.1596520       -4.3591930
 C        0.7590670        3.5707010       -4.5849860
 H        0.9585010        4.6462820       -4.5481770
 H        1.5989050        3.0000620       -4.1772310
 H        0.5219050        3.2426490       -5.6050180
 C       -3.8062920        2.4429760        0.6799310
 O       -4.7687220        1.5885570        1.2160700
 O       -3.2441690        3.3358350        1.3431940
 C       -5.0704670        1.7506790        2.6585850
 H       -5.8310180        0.9905120        2.8658850
 H       -4.1633850        1.5705500        3.2473570
 H       -5.4565530        2.7600740        2.8575700
 C        1.5716380        5.3147760       -0.2922500
 F        2.8137050        5.0413020        0.3088060
 F        1.7903350        5.3707040       -1.6797190
 F        1.2431090        6.6405130        0.0992240
 C       -5.8170310        0.8553320       -3.6639130
 H       -6.4423900        0.1912410       -3.0504240
 H       -5.5211580        0.3065950       -4.5682160
 H       -6.4523750        1.6984030       -3.9828920
 C       -1.7960250        5.4219680       -0.6446120
 F       -3.0599150        5.1273740       -1.1797750
 F       -1.9903500        5.8687610        0.6722670
 F       -1.3315050        6.5557490       -1.3693930
 C        0.8416830        3.1072030        3.6132320
 O       -0.1039590        3.9292950        3.0251130
 O        0.8449400        2.8650790        4.8407050
 C       -1.1909950        4.4194740        3.9146940
 H       -1.6683690        3.5683170        4.4130970
 H       -0.7732520        5.1067900        4.6625030
 H       -1.8895860        4.9214590        3.2426440
 C        3.1572400        2.0024790       -0.9441600
 O        4.3187370        1.3515110       -1.3546020
 O        2.3715970        2.5293050       -1.7600980
 C        4.5047840        1.1866520       -2.8112570
 H        5.4443690        0.6321830       -2.9070920
 H        3.6672260        0.6143180       -3.2313610
 H        4.5759060        2.1660810       -3.3045470
 C        5.3660680        1.0488790        3.4838930
 H        5.3894650       -0.0527680        3.4510930
 H        5.3333850        1.3483620        4.5395400
 H        6.3146320        1.4054710        3.0554520
