63
Mol_000028_2D_DFT last geometry from G09 out file
 Ru       -0.6499990        0.6614980        1.0553820
 C       -1.2771310       -0.4079390       -0.3023440
 Cl       -2.8383690        1.0674000        2.1033330
 Cl        1.5955950       -0.3355030        0.8177560
 H       -1.2362640       -0.2216150       -1.3815360
 H       -1.6657680       -1.4100940       -0.0215790
 C       -0.3857550        2.2743210        0.0753930
 N        0.5788500        3.2497110        0.4500610
 N       -1.0824910        2.8092410       -1.0255350
 C        0.5774830        4.3896440       -0.5198420
 C        1.7113890        3.0302050        1.3090780
 C        0.8358750        5.8287930       -0.0375970
 C       -0.8427240        4.2927670       -1.0753000
 H        1.2940040        4.1621160       -1.3318110
 C        0.6763440        6.7633270       -1.2740870
 H        1.8388470        5.9474010        0.3924610
 H        0.1103580        6.0980140        0.7463910
 C       -0.6652620        6.5713860       -2.0364640
 H        1.5159090        6.5809470       -1.9674660
 H        0.7646680        7.8123810       -0.9491240
 C       -0.9725750        5.0847600       -2.3840470
 H       -1.4914980        6.9718550       -1.4245860
 H       -0.6468120        7.1667250       -2.9634050
 H       -1.9844410        4.9980220       -2.8041160
 H       -0.2649610        4.7165650       -3.1417060
 H       -1.5383890        4.7532060       -0.3476400
 C        1.5881390        2.4131490        2.5910770
 C        2.9918840        3.4474580        0.8731460
 C        2.7466770        2.2459360        3.3806720
 C        4.0141290        2.6686310        2.9360760
 H        2.6687800        1.7672550        4.3538570
 C        4.1361180        3.2751920        1.6727210
 H        5.1101980        3.5936480        1.2989230
 C       -2.3088020        2.3234720       -1.6427210
 C       -2.3410560        1.5945710       -2.8910970
 C       -3.5174980        2.7078370       -1.0176610
 C       -3.6415790        1.3536630       -3.4429320
 C       -4.8273370        1.7500880       -2.8041290
 H       -3.7248150        0.8538350       -4.4043610
 C       -4.7782330        2.4229980       -1.5680050
 H       -5.6877470        2.7095420       -1.0406610
 N        0.2721520        1.9595150        3.0419570
 C        0.2869890        0.9165540        4.1164970
 C       -0.5700320        3.1275800        3.4836860
 H        0.9335310        0.0856390        3.8140650
 H       -0.7388700        0.5483750        4.2365330
 H        0.6276420        1.3131830        5.0906240
 H       -1.5723690        2.7685000        3.7319350
 H       -0.6531630        3.8537480        2.6704710
 H       -0.1149310        3.6199340        4.3622110
 H        3.1113620        3.8748430       -0.1200390
 H        4.8902840        2.5171850        3.5680010
 N       -1.2186810        1.0196480       -3.5383690
 C       -1.4335710        0.0031240       -4.5832540
 C        0.1090680        1.6546210       -3.6201760
 H       -1.7369470        0.4304770       -5.5598620
 H       -2.1934860       -0.7247470       -4.2702060
 H       -0.4918240       -0.5417760       -4.7364650
 H        0.2921990        2.2739370       -2.7464900
 H        0.2085820        2.2770400       -4.5321910
 H        0.8871340        0.8771780       -3.6506410
 H       -3.4547760        3.2060310       -0.0520490
 H       -5.7860320        1.5322000       -3.2789160
