81
Mol_000034_2D_DFT last geometry from G09 out file
 Ru        0.3739260       -0.2604770        1.1275970
 C       -0.7806830       -1.3695620        0.2678230
 Cl       -0.6201660       -0.2143840        3.3130750
 Cl        2.3545980       -0.5921610       -0.1916720
 H       -1.6021540       -1.1402220       -0.4143440
 H       -0.6136330       -2.4460980        0.4852320
 C       -0.1221460        1.5299380        0.5498980
 N        0.6067470        2.6633630        0.9395090
 N       -1.1675290        1.9981890       -0.2486770
 C        0.1819170        3.8629470        0.1284840
 C        1.6977640        2.7133440        1.8765770
 C        0.2981870        5.2880810        0.6866720
 C       -1.2816610        3.5033900       -0.1285330
 H        0.7329680        3.8184780       -0.8252520
 C       -0.3069160        6.2390430       -0.3892180
 H        1.3463390        5.5634430        0.8771920
 H       -0.2504330        5.3802700        1.6325010
 C       -1.7440910        5.8374000       -0.8239800
 H        0.3506160        6.2491670       -1.2755300
 H       -0.3189440        7.2675920        0.0054050
 C       -1.8587170        4.3490250       -1.2712750
 H       -2.4394720        6.0179150        0.0138100
 H       -2.0713720        6.4879900       -1.6507020
 H       -2.9136380        4.1014110       -1.4640640
 H       -1.2994880        4.1807760       -2.2003680
 H       -1.8632080        3.7068390        0.7844920
 C        1.4947530        2.7928970        3.2911380
 C        3.0427330        2.7326460        1.3963690
 C        2.5750550        2.7682260        4.1938510
 C        3.9039710        2.7191330        3.7277230
 H        2.3586530        2.7940200        5.2590330
 C        4.1067150        2.7270340        2.3304680
 H        5.1274610        2.7106100        1.9450930
 C       -2.1483070        1.2508200       -0.9750120
 C       -1.8959860        0.7528500       -2.2852170
 C       -3.4364580        1.0118540       -0.4074180
 C       -2.8624340        0.0356490       -3.0148420
 C       -4.1473130       -0.1800300       -2.4733610
 H       -2.5986140       -0.3498130       -3.9978710
 C       -4.4030250        0.3162070       -1.1738010
 H       -5.3826330        0.1379300       -0.7273200
 N        0.1511450        2.9917290        3.9294200
 O        0.0395770        2.7346460        5.1815880
 O       -0.8115600        3.4754540        3.2283010
 C        3.3713730        2.7895920       -0.0847500
 H        3.3269150        3.8294690       -0.4493390
 H        2.6895880        2.1849420       -0.6878950
 H        4.3880350        2.4210520       -0.2688360
 C        5.0739600        2.7057300        4.7005730
 C        5.5785280        4.1294020        5.0804730
 H        4.7826440        2.1773510        5.6221570
 H        5.9112510        2.1394930        4.2619900
 C        6.7679020        4.1024430        6.0696790
 H        5.8754000        4.6665120        4.1634970
 H        4.7464670        4.7032730        5.5226800
 C        7.2752640        5.5108240        6.4509920
 H        7.5976340        3.5232900        5.6274210
 H        6.4677620        3.5630480        6.9851880
 H        8.1167890        5.4499080        7.1588110
 H        6.4803200        6.1066060        6.9272700
 H        7.6233780        6.0645420        5.5643910
 N       -0.5836980        0.9369750       -2.9749370
 O       -0.1440670       -0.0485190       -3.6726370
 O        0.0160830        2.0697480       -2.8817640
 C       -3.7797420        1.4593490        1.0027850
 H       -2.9634980        1.2625980        1.7070960
 H       -4.6739730        0.9368940        1.3660060
 H       -3.9944260        2.5389460        1.0425750
 C       -5.2186780       -0.9116920       -3.2688310
 C       -6.0327830        0.0202430       -4.2151810
 H       -4.7539510       -1.7064180       -3.8741740
 H       -5.9170310       -1.4085360       -2.5766160
 C       -7.1192470       -0.7391960       -5.0129150
 H       -6.5044520        0.8207130       -3.6202740
 H       -5.3425390        0.5181340       -4.9170350
 C       -7.9228530        0.1719210       -5.9670700
 H       -7.8121720       -1.2312850       -4.3078430
 H       -6.6445220       -1.5481170       -5.5956370
 H       -8.6862820       -0.4035800       -6.5136200
 H       -7.2660720        0.6477210       -6.7126600
 H       -8.4398490        0.9734680       -5.4157650
