53
Mol_000035_2D_DFT last geometry from G09 out file
 Ru       -0.0348180        0.2107240        0.9552530
 C       -1.4088750       -0.6715930        0.1603640
 Cl       -1.0784210        0.8134560        3.0604490
 Cl        1.8026660       -0.6474270       -0.3484300
 H       -2.1161160       -0.3202330       -0.5945460
 H       -1.5232200       -1.7262590        0.4924120
 C       -0.0935420        1.9907290        0.1924080
 N        0.9168250        2.9202200        0.4702750
 N       -1.0457010        2.6486760       -0.5863540
 C        0.7182840        4.1635090       -0.3429410
 C        2.0904190        2.7159600        1.2987890
 C        1.1506750        5.5341210        0.1937190
 C       -0.8000480        4.1320660       -0.5384500
 H        1.2058740        4.0078160       -1.3223090
 C        0.7370120        6.5844490       -0.8810940
 H        2.2352630        5.5805600        0.3664930
 H        0.6562360        5.7448090        1.1549730
 C       -0.7547250        6.4860220       -1.3130320
 H        1.3792490        6.4539180       -1.7692130
 H        0.9380070        7.5971710       -0.4969430
 C       -1.2016480        5.0443090       -1.7042360
 H       -1.3945440        6.8429090       -0.4877030
 H       -0.9330140        7.1648150       -2.1621990
 H       -2.2860960        5.0248250       -1.8845120
 H       -0.7073600        4.7252060       -2.6351890
 H       -1.2854010        4.5144930        0.3784680
 C        1.9184720        2.7098330        2.7035730
 C        3.3930400        2.5971120        0.7266030
 C        3.0240130        2.5607910        3.5632680
 C        4.3171280        2.4420790        3.0158620
 H        2.8711610        2.5412290        4.6430680
 C        4.4872250        2.4637470        1.6165730
 H        5.4899080        2.3569170        1.1988060
 C       -2.1941290        2.1069480       -1.2723930
 C       -1.9860490        1.5230320       -2.5450630
 C       -3.5085470        2.2201360       -0.7305080
 C       -3.0703100        1.0356350       -3.3003320
 C       -4.3782610        1.1445660       -2.7818520
 H       -2.8953210        0.5807210       -4.2762050
 C       -4.5835580        1.7282260       -1.5147490
 H       -5.5973620        1.7977130       -1.1163580
 H        0.9164610        2.8073710        3.1134130
 C        3.6446750        2.5915060       -0.7713250
 H        3.6119100        3.6081250       -1.1967670
 H        2.9079700        1.9734910       -1.2979980
 H        4.6389920        2.1814310       -0.9913300
 H        5.1845420        2.3267820        3.6680720
 H       -0.9674950        1.4421240       -2.9249460
 C       -3.7770310        2.8244550        0.6368210
 H       -3.0580600        2.4706470        1.3858620
 H       -4.7848390        2.5631110        0.9859520
 H       -3.7188740        3.9251270        0.6116690
 H       -5.2301480        0.7742950       -3.3546660
