77
Mol_000033_2D_DFT last geometry from G09 out file
 Ru        0.3284000       -0.0204350       -0.1739130
 C       -0.9574320       -0.8023930       -1.1885600
 Cl       -0.5520170       -0.4143530        2.0413010
 Cl        2.1016540       -0.0813330       -1.8222810
 H       -1.7671430       -0.3466630       -1.7617000
 H       -0.8761660       -1.9100720       -1.2429040
 C       -0.1208370        1.8732260       -0.1279150
 N        0.6914890        2.7696770        0.5657760
 N       -1.2233200        2.5893700       -0.5865580
 C        0.1986750        4.1654580        0.4297980
 C        2.0645680        2.5887560        1.0195220
 C       -1.2801230        3.9910230        0.0106150
 H        0.7868270        4.6918780       -0.3417840
 H        0.3074220        4.7065160        1.3740750
 C       -2.2600990        4.1217810        1.2221080
 C       -1.7813550        5.1193080       -0.9277060
 C       -2.4607610        5.6528510        1.4063670
 H       -1.8802440        3.6197340        2.1214870
 H       -3.2166730        3.6532480        0.9599440
 C       -2.0896230        6.3026320        0.0283280
 H       -3.4972260        5.8776610        1.6964390
 H       -1.8174910        6.0476360        2.2066360
 H       -1.2080270        6.9526830        0.1353520
 H       -2.9014540        6.9313200       -0.3647790
 H       -2.7036960        4.7904100       -1.4248050
 H       -1.0527140        5.3789060       -1.7061020
 C        3.0805830        2.5727830        0.0331560
 C        2.4098980        2.5744290        2.4050310
 C        4.4365820        2.5094250        0.3897630
 C        4.8161390        2.4845610        1.7527370
 H        5.1946280        2.4692180       -0.3941290
 C        3.7906500        2.5188990        2.7241270
 H        4.0792390        2.4955580        3.7754260
 C       -2.3666750        2.0497010       -1.2963750
 C       -2.4814950        2.1386550       -2.7178340
 C       -3.3990200        1.4403680       -0.5398210
 C       -3.6637320        1.6185670       -3.3063860
 C       -4.7122790        1.0300570       -2.5635610
 H       -3.7666510        1.6652720       -4.3911540
 C       -4.5554700        0.9383630       -1.1589050
 H       -5.3265220        0.4616850       -0.5509490
 H        2.7974590        2.5792470       -1.0165710
 C        1.3712800        2.6421780        3.5358350
 C        1.3922180        4.0292850        4.2458280
 C        1.5440790        1.5042240        4.5796380
 H        0.3809370        2.5046730        3.0834390
 H        2.3455100        4.1941440        4.7701310
 H        0.5852250        4.0852380        4.9932180
 H        1.2582880        4.8613120        3.5381560
 H        0.7166150        1.5364790        5.3052420
 H        2.4836370        1.6003050        5.1438740
 H        1.5248400        0.5208120        4.0947070
 C        6.2849490        2.4484620        2.1597860
 C        6.9334330        3.8576040        2.2493890
 H        6.8537000        1.8442890        1.4348030
 H        6.3888090        1.9479010        3.1355760
 H        6.4219810        4.4842100        2.9957650
 H        6.8842900        4.3797730        1.2819930
 H        7.9929520        3.7778500        2.5396360
 C       -1.3759850        2.7124480       -3.6210400
 C       -1.8836030        3.8604540       -4.5392440
 C       -0.6945110        1.6008990       -4.4720460
 H       -0.5971170        3.1297330       -2.9688770
 H       -2.3734310        4.6596750       -3.9657220
 H       -2.6020030        3.4981620       -5.2892920
 H       -1.0367500        4.3038410       -5.0855360
 H       -0.2443880        0.8276310       -3.8384580
 H        0.1108550        2.0379650       -5.0823620
 H       -1.4102130        1.1200340       -5.1560030
 H       -3.2623600        1.3214290        0.5335300
 C       -5.9751200        0.5236700       -3.2509440
 C       -7.0826970        1.6068750       -3.3704290
 H       -6.3810560       -0.3360370       -2.6942240
 H       -5.7293010        0.1573510       -4.2605730
 H       -7.9716010        1.1956420       -3.8738910
 H       -6.7309630        2.4719370       -3.9525620
 H       -7.3912690        1.9713430       -2.3790390
