71
Mol_000026_2D_DFT last geometry from G09 out file
 Ru       -0.0867340       -0.5796680        0.0444530
 C       -1.5799460       -0.9373790       -0.9277250
 Cl       -0.8837420       -1.1926120        2.2349310
 Cl        1.5574410       -0.7707290       -1.7479890
 H       -2.2989930       -0.2350680       -1.3602900
 H       -1.7788790       -2.0168660       -1.0980700
 C       -0.0554460        1.3673470        0.1205410
 N        0.8263080        2.0795990        0.9302850
 N       -0.6661100        2.2814310       -0.7405280
 C        1.8253520        1.4472190        1.7860440
 C        0.8721760        3.5986900        0.5551150
 C        2.8515400        0.7252200        1.1296090
 C        1.8642280        1.5803240        3.2245640
 C        3.9169490        0.1225520        1.8231680
 C        3.9777820        0.2665890        3.2212160
 H        4.6787730       -0.4315570        1.2748860
 C        2.9702960        0.9778570        3.8953490
 H        3.0189780        1.0356680        4.9805280
 C        0.1470340        3.5308300       -0.8173060
 H       -0.5024390        4.3913890       -0.9933980
 H        0.8579710        3.4534570       -1.6496370
 C       -2.0278280        2.2842150       -1.1954890
 C       -2.3704620        2.6894380       -2.5351700
 C       -3.0544110        2.0025450       -0.2608200
 C       -3.7562880        2.8411940       -2.8358820
 C       -4.7618440        2.5669590       -1.8914490
 H       -4.0508960        3.1453350       -3.8384010
 C       -4.4146050        2.1225930       -0.5984300
 H       -5.1823130        1.8957560        0.1418510
 N       -1.3744970        2.9786590       -3.5085690
 C       -0.3897120        1.9278730       -3.8592110
 C       -1.7283180        3.8441370       -4.6459960
 H       -0.7938180        1.2340260       -4.6232860
 H       -0.1090320        1.3387580       -2.9861760
 H        0.5204590        2.3910920       -4.2691980
 H       -2.3098500        3.3269060       -5.4371270
 H       -0.8003060        4.2117420       -5.1085730
 H       -2.3044570        4.7137100       -4.3031370
 H       -2.7713500        1.6940360        0.7444740
 C        0.0307260        4.3929980        1.6088520
 C       -0.1487660        5.9220850        1.4210560
 H        0.4714890        4.2069720        2.5943020
 H       -0.9707680        3.9364650        1.6241760
 C       -1.2402830        6.4838390        2.3622140
 H       -0.4212290        6.1685240        0.3817750
 H        0.7956590        6.4456700        1.6317660
 H       -1.0016730        6.2800670        3.4184490
 H       -1.3380380        7.5747930        2.2468720
 H       -2.2228870        6.0342410        2.1481300
 C        2.3630500        4.0396840        0.4191900
 C        2.6760160        5.3220540       -0.3994000
 H        2.9097130        3.2143420       -0.0589280
 H        2.7925960        4.1481720        1.4269430
 C        4.2007520        5.5369190       -0.5455800
 H        2.2384370        6.2110260        0.0721760
 H        2.2339470        5.2524360       -1.4063950
 H        4.6769400        4.6939600       -1.0707950
 H        4.4157000        6.4532190       -1.1174520
 H        4.6875040        5.6342910        0.4378970
 H       -5.8101010        2.6837480       -2.1721510
 H        2.8171610        0.6518780        0.0459870
 N        0.9099700        2.3129380        3.9866070
 C       -0.5208610        1.9382000        3.9435120
 C        1.3131790        2.8443720        5.3001380
 H       -0.7500140        1.1457980        4.6797850
 H       -0.7911450        1.5538770        2.9625220
 H       -1.1421150        2.8177080        4.1730440
 H        1.2941250        2.0892470        6.1125180
 H        0.6115850        3.6443430        5.5827020
 H        2.3205840        3.2779250        5.2504340
 H        4.7901370       -0.1864570        3.7925930
