77
Mol_000248_2D_DFT last geometry from G09 out file
 Ru        0.1123650        0.0343700        0.0413820
 C       -1.1993070       -0.7032600       -0.9762420
 Cl       -0.7422940       -0.3643960        2.2592910
 Cl        1.9497740       -0.2596550       -1.4949360
 H       -1.9693220       -0.2023550       -1.5671760
 H       -1.1888090       -1.8135530       -1.0137800
 C       -0.2629270        1.9551110        0.0044920
 N        0.6366640        2.8585260        0.5728430
 N       -1.3812440        2.6868220       -0.4042140
 C        0.1691690        4.2626930        0.4525660
 C        2.0232880        2.6374460        0.9783840
 C       -1.3280380        4.1393770        0.0731070
 H        0.7464730        4.7871460       -0.3239540
 H        0.3137600        4.7932910        1.3984110
 C       -2.2662560        4.4541280        1.2829560
 C       -1.7740700        5.2219610       -0.9486510
 C       -2.2967710        6.0034370        1.3592460
 H       -1.9270990        3.9818060        2.2140120
 H       -3.2714010        4.0788620        1.0619780
 C       -1.9959750        6.5023020       -0.0956240
 H       -3.2709070        6.3597610        1.7241400
 H       -1.5404010        6.3829860        2.0621540
 H       -1.0996830        7.1407080       -0.1064600
 H       -2.8197240        7.1070100       -0.5015870
 H       -2.7204840        4.9135350       -1.4112590
 H       -1.0422040        5.3750700       -1.7503300
 C        3.0482250        2.7583900       -0.0118270
 C        2.3627130        2.4519790        2.3571830
 C        4.3930180        2.5821850        0.3803800
 C        4.7574320        2.3231990        1.7184550
 H        5.1701140        2.6446020       -0.3835810
 C        3.7302240        2.2876420        2.6842350
 H        4.0032640        2.1290510        3.7266780
 C       -2.5264090        2.2024740       -1.1646010
 C       -2.5153250        2.2859300       -2.6008830
 C       -3.6751340        1.6840090       -0.4893060
 C       -3.6731650        1.8846300       -3.3051230
 C       -4.8366660        1.4100540       -2.6602080
 H       -3.6694710        1.9402780       -4.3938890
 C       -4.8066640        1.3098740       -1.2560770
 H       -5.6777230        0.9151200       -0.7291120
 C        2.7700070        3.1253380       -1.4611520
 H        2.7932670        4.2210230       -1.5946160
 H        1.8059510        2.7529660       -1.8135140
 H        3.5392210        2.7004610       -2.1177970
 C        1.3317640        2.5197760        3.4982470
 C        1.3772900        3.9168120        4.1922410
 C        1.5064030        1.4065850        4.5668050
 H        0.3341960        2.3902960        3.0616100
 H        1.2400670        4.7435920        3.4803140
 H        2.3424360        4.0749090        4.6965910
 H        0.5842360        3.9874750        4.9533370
 H        0.6599330        1.4343630        5.2698000
 H        2.4265330        1.5389440        5.1552980
 H        1.5233490        0.4114280        4.1076510
 C        6.2068920        2.0798370        2.1042440
 H        6.4518300        1.0059530        2.0414130
 H        6.4130900        2.4008080        3.1355380
 H        6.9006130        2.6107740        1.4364570
 C       -1.2921370        2.7392030       -3.4223190
 C       -1.6219650        3.8865310       -4.4208940
 C       -0.6438290        1.5484810       -4.1893150
 H       -0.5356660        3.1171450       -2.7246120
 H       -2.1248010        4.7320430       -3.9325490
 H       -2.2696920        3.5400030       -5.2389820
 H       -0.6926340        4.2600830       -4.8787740
 H        0.2341990        1.8996310       -4.7533990
 H       -1.3486640        1.1058730       -4.9090840
 H       -0.3041150        0.7613220       -3.5073650
 C       -3.7535960        1.4382670        1.0103400
 H       -2.8251780        1.6613990        1.5341230
 H       -3.9763410        0.3785020        1.2017530
 H       -4.5678090        2.0252480        1.4643090
 C       -6.0662920        1.0126890       -3.4604780
 H       -5.8135700        0.2910180       -4.2531240
 H       -6.5195470        1.8877130       -3.9548710
 H       -6.8356480        0.5555630       -2.8235950
