93
Mol_000245_2D_DFT last geometry from G09 out file
 Ru        0.4063220       -0.0716420       -0.1759980
 C       -0.7712190       -0.9010450       -1.2802760
 Cl       -0.6882140       -0.3847960        1.9594880
 Cl        2.2525280       -0.2498990       -1.8037690
 H       -1.4441250       -0.4792280       -2.0308720
 H       -0.7442550       -2.0120300       -1.2149180
 C        0.0336300        1.8526090       -0.3124460
 N        0.8353870        2.7562880        0.3743080
 N       -0.9009260        2.5670500       -1.0356520
 C        0.6069720        4.1827870       -0.0626230
 C        1.7740910        2.3742490        1.4150810
 C       -0.7469480        4.0756240       -0.8652050
 H        0.4594180        4.7690300        0.8480680
 H       -0.6222990        4.4791040       -1.8760480
 C        1.6783190        2.8118130        2.7734490
 C        2.8721680        1.5475530        1.0745230
 C        2.6612880        2.4002770        3.7019810
 C        3.7505850        1.5426940        3.3661710
 H        2.5448220        2.7395400        4.7275280
 C        3.8269080        1.1213440        2.0064640
 H        4.6296160        0.4774370        1.6561240
 C       -2.0012570        1.9984870       -1.7804450
 C       -2.1744230        2.1736700       -3.1912760
 C       -3.0142340        1.3133810       -1.0677230
 C       -3.3730770        1.7159580       -3.7948790
 C       -4.4125920        1.0644400       -3.0673710
 H       -3.4770740        1.8468840       -4.8667200
 C       -4.1858550        0.8436020       -1.6739510
 H       -4.9149070        0.3243810       -1.0575080
 N       -1.1581880        2.8059780       -3.9945720
 C        0.0194450        1.9509790       -4.2948730
 C       -1.6014970        3.5842920       -5.1681730
 H        0.8238550        2.5669270       -4.7211340
 H       -0.2263580        1.1546080       -5.0287200
 H        0.3991030        1.4743140       -3.3898790
 H       -0.7784040        4.2449320       -5.4818620
 H       -2.4631140        4.2109990       -4.9038870
 H       -1.8764820        2.9651920       -6.0493090
 H       -2.8703170        1.1377900       -0.0039540
 C        1.8438080        4.8331680       -0.8498940
 C        2.3298670        3.9454270       -2.0247390
 C        1.4536350        6.2287240       -1.4286540
 C        3.0313010        5.0901340        0.1291370
 H        3.1942380        4.4198010       -2.5145270
 H        1.5476000        3.8211240       -2.7810510
 H        2.6405590        2.9497080       -1.6936770
 H        2.3299630        6.6559270       -1.9390150
 H        1.1552140        6.9342530       -0.6418330
 H        0.6454150        6.1748080       -2.1700750
 H        3.4727500        4.1651610        0.5100850
 H        2.7166200        5.6999130        0.9899430
 H        3.8249990        5.6450570       -0.3946160
 N       -5.5918150        0.6399460       -3.6958610
 C       -5.7877640        0.8529200       -5.1352000
 C       -6.6058960       -0.1044760       -2.9359540
 H       -5.7189970        1.9217490       -5.4012110
 H       -6.7859840        0.5044680       -5.4246640
 H       -5.0492250        0.3012850       -5.7457990
 H       -6.9962900        0.4860000       -2.0895250
 H       -6.2100930       -1.0546940       -2.5349980
 H       -7.4514140       -0.3444040       -3.5910580
 C       -1.9985500        4.8413460       -0.2183480
 C       -2.4567870        4.2018510        1.1182730
 C       -1.6171390        6.3295690        0.0666910
 C       -3.1998630        4.9083950       -1.2127140
 H       -3.2785480        4.7934080        1.5510540
 H       -1.6367020        4.1732810        1.8410600
 H       -2.8239550        3.1799410        0.9807810
 H       -1.3286060        6.8619770       -0.8492420
 H       -0.8064450        6.4350340        0.7979440
 H       -2.4960980        6.8440030        0.4828710
 H       -3.9651630        5.5904580       -0.8105360
 H       -3.6767850        3.9387500       -1.3710650
 H       -2.8891550        5.3039540       -2.1918830
 N        0.5819080        3.6582510        3.2375770
 C       -0.4581050        2.9041790        3.9869890
 C        0.9922060        4.8977390        3.9388820
 H       -0.1028600        2.5550400        4.9800270
 H       -0.7677050        2.0284040        3.4096680
 H       -1.3324070        3.5520390        4.1494790
 H        1.7751810        5.4119590        3.3668760
 H        1.3728150        4.7363800        4.9706510
 H        0.1207090        5.5672050        4.0146000
 H        3.0015010        1.2446590        0.0394940
 N        4.6920780        1.1349280        4.3203770
 C        4.5719880        1.5674720        5.7179750
 C        5.7436970        0.1770130        3.9507540
 H        4.5916600        2.6674010        5.8080290
 H        5.4165730        1.1752300        6.2964220
 H        3.6416710        1.2024100        6.1905220
 H        6.4211560        0.5869470        3.1814870
 H        5.3218400       -0.7676050        3.5647510
 H        6.3485120       -0.0622890        4.8332010
