83
Mol_000244_2D_DFT last geometry from G09 out file
 Ru       -0.2343590        0.1895090        0.5246270
 C       -1.5836150       -0.5865250       -0.4094820
 Cl       -1.2647810        0.2880120        2.7023240
 Cl        1.6125590       -0.5368350       -0.8636820
 H       -2.2844520       -0.1583800       -1.1277550
 H       -1.6850440       -1.6780800       -0.2216840
 C       -0.3019660        2.1040700        0.1129800
 N        0.6659520        2.9565310        0.6223850
 N       -1.2011770        2.8805450       -0.6080620
 C        0.3629650        4.4188200        0.3639360
 C        1.7913670        2.5268450        1.4108470
 C       -0.7305260        4.3295160       -0.7400110
 H       -0.0757210        4.7903610        1.2963420
 H       -0.2612150        4.3861810       -1.7272600
 C        1.8633490        2.4287490        2.8424390
 C        2.9914860        2.1982710        0.7284000
 C        3.0378850        1.9496040        3.4621170
 C        4.2023800        1.5606940        2.7361970
 H        3.0078620        1.8728440        4.5433610
 C        4.1609990        1.7284840        1.3223240
 H        4.9978030        1.4904940        0.6735480
 C       -2.2425370        2.3542450       -1.4408590
 C       -2.0620230        1.9134750       -2.7905720
 C       -3.5546990        2.2025250       -0.9363650
 C       -3.1411660        1.4153410       -3.5486520
 C       -4.4672690        1.3282860       -3.0229030
 H       -2.9273290        1.0725860       -4.5545480
 C       -4.6460000        1.7240800       -1.6640140
 H       -5.6011570        1.6512630       -1.1530970
 C       -0.7070660        1.9391320       -3.4479040
 O       -0.4963930        0.7819950       -4.1920500
 O        0.1359180        2.8584310       -3.3702370
 C        0.8539090        0.6209000       -4.7885320
 H        0.8108360       -0.3456390       -5.3015220
 H        1.0638640        1.4375210       -5.4929530
 H        1.6051540        0.6074430       -3.9894960
 F       -3.8081450        2.5297110        0.4044700
 C        1.6252650        5.3065640        0.0605050
 C        1.4938410        6.7080410        0.7189830
 C        2.0338550        5.4304970       -1.4288000
 H        2.4613760        4.8159050        0.5811170
 H        1.2866020        6.6286190        1.7976480
 H        0.6957720        7.3132460        0.2642430
 H        2.4345220        7.2676120        0.6006740
 H        3.0237250        5.9080550       -1.4966080
 H        1.3318630        6.0573650       -1.9998780
 H        2.0992860        4.4531760       -1.9195520
 N       -5.5316200        0.8587240       -3.7916310
 C       -6.8743170        0.7430300       -3.2023160
 C       -5.3075740        0.4038660       -5.1729410
 H       -6.8981230        0.0246250       -2.3639110
 H       -7.5791430        0.3919090       -3.9640600
 H       -7.2393520        1.7158670       -2.8322030
 H       -4.8957290        1.2092590       -5.8038750
 H       -6.2613930        0.0918200       -5.6126050
 H       -4.6176740       -0.4566340       -5.2185830
 C       -1.7754400        5.4969190       -0.6824670
 C       -2.6251290        5.6265060        0.6051080
 C       -2.6605310        5.6055330       -1.9551360
 H       -1.1217050        6.3861410       -0.7163280
 H       -3.2602460        6.5235660        0.5354890
 H       -2.0000230        5.7424580        1.5002100
 H       -3.2768200        4.7607490        0.7582330
 H       -3.1282830        6.6018190       -1.9942970
 H       -3.4686890        4.8648670       -1.9733000
 H       -2.0642440        5.4805350       -2.8715330
 C        0.7877470        2.7974990        3.8382540
 O       -0.2234440        3.5932350        3.3205170
 O        0.8240810        2.4672950        5.0461610
 C       -1.3545290        3.8637860        4.2423820
 H       -2.0671480        4.4400370        3.6455970
 H       -1.7953440        2.9147580        4.5689170
 H       -1.0076490        4.4356450        5.1139220
 F        3.0383100        2.3760560       -0.6607150
 N        5.3293310        1.0535540        3.3795920
 C        5.3355990        0.8766800        4.8411740
 C        6.4995270        0.6337360        2.5940870
 H        4.5382400        0.1908950        5.1735670
 H        5.2059510        1.8358830        5.3701640
 H        6.2965640        0.4513590        5.1515470
 H        6.2399080       -0.1537770        1.8659600
 H        7.2655270        0.2304050        3.2655850
 H        6.9477070        1.4786130        2.0427450
