91
M00000231_2D_DFT last geometry from G09 out file
 Ru        0.3630190        0.3595650       -0.4233700
 C       -1.2354480       -0.5057460       -0.6885570
 Cl        0.6140980       -0.2941580        1.9258010
 Cl        0.6261170        0.2905350       -2.9102210
 H       -2.0471230       -0.2552070       -1.3797400
 H       -1.2925690       -1.5363950       -0.2776710
 C       -0.0475260        2.2678140       -0.2722360
 N        0.8893110        3.1607030        0.2981070
 N       -1.0627160        3.0285380       -0.8452420
 C        0.6797250        4.5871670       -0.2117120
 C        1.8705120        2.8877340        1.3642040
 C       -0.7779480        4.5358560       -0.8390520
 H        0.6830700        5.2571700        0.6558920
 H       -0.6985390        4.8184670       -1.8930700
 C        1.6514250        3.3476820        2.7066270
 C        3.1344080        2.2597060        1.0829070
 C        2.7085140        3.2721580        3.6490840
 C        3.9455950        2.7421040        3.2989430
 H        2.5572390        3.6149360        4.6694470
 C        4.1780070        2.2090380        2.0344250
 H        5.1278140        1.7421210        1.7909620
 C       -2.2807870        2.4963760       -1.4385260
 C       -2.5614770        2.6345210       -2.8428670
 C       -3.2585950        1.8635270       -0.5928440
 C       -3.8413440        2.2530370       -3.3175170
 C       -4.7822520        1.6907630       -2.4580780
 H       -4.0956660        2.3672610       -4.3682600
 C       -4.5057510        1.4487190       -1.1133520
 H       -5.2346050        0.9541580       -0.4781950
 C       -1.5632120        3.1284570       -3.9108070
 C       -1.9150440        4.5331830       -4.4865130
 C       -1.4500600        2.1255480       -5.0977840
 H       -0.5732890        3.1676380       -3.4475330
 H       -1.1818510        4.8058770       -5.2606330
 H       -1.9109070        5.3272500       -3.7301730
 H       -2.9079900        4.5314300       -4.9603610
 H       -0.6008080        2.4149140       -5.7350570
 H       -2.3507300        2.1303260       -5.7296780
 H       -1.2647530        1.1074240       -4.7419470
 C       -3.0619940        1.6037100        0.8797270
 O       -3.6409340        0.3861380        1.2381580
 O       -2.5134240        2.3523530        1.7122170
 C       -3.5025690       -0.0246980        2.6584720
 H       -4.0501010       -0.9710360        2.7216780
 H       -2.4417390       -0.1642450        2.8975690
 H       -3.9443190        0.7319600        3.3212730
 C        1.8600740        5.0985490       -1.1843750
 C        3.1656330        5.3348080       -0.3584100
 C        2.1444680        4.1149640       -2.3535330
 C        1.5356380        6.4842560       -1.8233830
 H        2.9692030        5.9286900        0.5477620
 H        3.8838440        5.9009720       -0.9698940
 H        3.6624590        4.4119430       -0.0571820
 H        1.3618600        4.1602940       -3.1214200
 H        2.2231600        3.0755960       -2.0312250
 H        3.0895140        4.3931740       -2.8438500
 H        2.3679770        6.7567440       -2.4890070
 H        1.4471430        7.2808730       -1.0730150
 H        0.6281550        6.4781150       -2.4361570
 F       -6.0404640        1.3246380       -2.9699350
 C       -1.8909090        5.5576430       -0.2463970
 C       -2.0833360        5.5383720        1.2906120
 C       -1.4682180        7.0143520       -0.6216180
 C       -3.3008370        5.3543070       -0.8863160
 H       -1.2031840        5.9210130        1.8149670
 H       -2.3269920        4.5421590        1.6612670
 H       -2.9178030        6.2085460        1.5483210
 H       -2.2338260        7.7065120       -0.2423040
 H       -1.3971990        7.1702770       -1.7067270
 H       -0.5170280        7.3071760       -0.1644390
 H       -3.8075730        4.4615640       -0.5125090
 H       -3.2742790        5.3058100       -1.9795600
 H       -3.9288650        6.2163000       -0.6157130
 C        0.3151740        3.8611820        3.2519840
 C        0.4317360        5.2836250        3.8699700
 C       -0.2642680        2.8640160        4.2993980
 H       -0.3984250        3.8865790        2.4302220
 H       -0.5619030        5.6440780        4.1726870
 H        0.8598600        6.0128380        3.1654110
 H        1.0641650        5.2863290        4.7694260
 H        0.3624370        2.8087530        5.2019960
 H       -0.3500100        1.8582400        3.8744270
 H       -1.2679810        3.1965020        4.6030800
 C        3.3924250        1.4818620       -0.1503530
 O        4.6928570        1.5455160       -0.6054720
 O        2.5429910        0.7459320       -0.7126780
 C        5.0434340        0.6649060       -1.7535710
 H        6.0640940        0.9587730       -2.0180350
 H        5.0016880       -0.3870140       -1.4398320
 H        4.3458880        0.8263470       -2.5843980
 F        4.9749380        2.7087110        4.2551830
