55
M00000065_2D_DFT last geometry from G09 out file
Ru       -0.0486370        0.3271420       -0.2504550
C        1.6566090        0.0730330        0.3190610
Cl        0.3020790        0.3300420       -2.6363300
Cl       -1.2407180       -0.5197110        1.6707140
H        2.3766830        0.7930900        0.7139840
H        2.0037000       -0.9807260        0.2528630
C       -0.3608510        2.2433460       -0.0265510
N        0.4900600        3.2793240        0.3224770
N       -1.6075850        2.8136590       -0.2570260
C       -0.1626400        4.6240710        0.2344130
C        1.8416020        3.2350160        0.8163840
C       -1.6490100        4.2755220        0.0419500
H        0.2427190        5.1815310       -0.6212520
H        0.0142290        5.1816180        1.1605330
H       -2.0918970        4.8139640       -0.8020530
C        2.0925650        3.0240620        2.2067320
C        2.9204940        3.4600010       -0.0884910
C        3.4255990        3.0209870        2.6836510
C        4.4937350        3.2572720        1.8000700
H        3.6115050        2.8354770        3.7395320
C        4.2387300        3.4732310        0.4321040
H        5.0724440        3.6437410       -0.2507870
C       -2.7984780        2.1755190       -0.7747910
C       -3.0084320        2.0582000       -2.1887160
C       -3.8011220        1.7398830        0.1401930
C       -4.1661510        1.3942910       -2.6620830
C       -5.1256980        0.9010030       -1.7610330
H       -4.3062660        1.2822290       -3.7339180
C       -4.9512180        1.0940460       -0.3803660
H       -5.7117090        0.7376800        0.3166150
C       -2.0964590        2.7081530       -3.1929540
O       -2.2468280        2.1402460       -4.4558460
O       -1.3362910        3.6823890       -2.9833200
C       -1.3724650        2.6666650       -5.5249400
H       -1.6568510        2.0986690       -6.4172390
H       -1.5412870        3.7428340       -5.6704060
H       -0.3210910        2.4875110       -5.2655080
C       -3.7192290        1.9824430        1.6373150
H       -2.6998760        2.1610500        1.9844740
H       -4.1095260        1.1183250        2.1901020
H       -4.3366900        2.8559690        1.9093580
H       -2.2370670        4.4560610        0.9526970
H       -6.0109370        0.3857310       -2.1362050
C        0.9702710        2.8205680        3.1865690
O        1.3296500        1.8943550        4.1624570
O       -0.1396170        3.3997190        3.1717620
C        0.2873380        1.5340140        5.1546450
H        0.7874740        0.8369070        5.8351110
H       -0.0634050        2.4277140        5.6885150
H       -0.5522450        1.0469960        4.6426230
C        2.6923140        3.6674440       -1.5756580
H        1.9360570        2.9824420       -1.9744710
H        3.6247910        3.5131160       -2.1346340
H        2.3489500        4.6924130       -1.7897680
H        5.5185730        3.2652230        2.1735960
