83
M00000540_2D_DFT last geometry from G09 out file
 Ru        0.0588300        0.1968490        0.0460080
 C       -1.2619030       -0.6426020       -0.8719090
 Cl       -0.8685080        0.0959300        2.2829760
 Cl        1.7043800       -0.1262710       -1.7591150
 H       -1.9896470       -0.2617490       -1.5908230
 H       -1.2691000       -1.7442320       -0.7094210
 C       -0.1834970        2.1327790       -0.1652360
 N        0.6904500        2.9980920        0.4837860
 N       -1.0665980        2.8910420       -0.9051310
 C        0.5659570        4.4303890       -0.0059960
 C        1.6588290        2.5243560        1.4630070
 C       -0.8123910        4.3957830       -0.7725740
 H        0.4887350        5.0631840        0.8788850
 H       -0.6806850        4.7703070       -1.7905090
 C        1.5970040        2.8323810        2.8601620
 C        2.6774210        1.6480260        1.0205480
 C        2.5569840        2.2532230        3.7263860
 C        3.5804170        1.3847060        3.2833470
 H        2.5088980        2.4907770        4.7897020
 C        3.6133510        1.0823000        1.9054600
 H        4.3702430        0.4043760        1.5070660
 C       -2.1766890        2.3343000       -1.6515010
 C       -2.1925770        2.2375850       -3.0733070
 C       -3.2839430        1.8238600       -0.9313830
 C       -3.3290620        1.6778570       -3.7121410
 C       -4.4607450        1.2223350       -2.9986080
 H       -3.3374190        1.6113490       -4.8013840
 C       -4.4064480        1.2886660       -1.5852980
 H       -5.2386870        0.9110890       -0.9886750
 C       -1.0663990        2.7248670       -3.9694670
 C       -0.3670890        1.6957530       -4.8445640
 O       -0.7244040        3.9369480       -3.9772780
 H       -1.0754770        1.0189600       -5.3419430
 H        0.2614090        2.1978600       -5.5896930
 H        0.2728060        1.0672050       -4.2027830
 H       -3.2478950        1.8240850        0.1545750
 C        1.8345770        4.9598050       -0.8277820
 C        2.2526960        4.0255700       -1.9953260
 C        1.5294360        6.3698390       -1.4235020
 C        3.0422860        5.1542680        0.1442470
 H        1.4965730        3.9999130       -2.7873750
 H        2.4382330        2.9982010       -1.6671610
 H        3.1839420        4.4013660       -2.4461880
 H        2.4234290        6.7269260       -1.9559550
 H        1.2963380        7.1047180       -0.6415530
 H        0.7083510        6.3578740       -2.1510430
 H        3.4624760        4.2064970        0.4938150
 H        2.7592800        5.7480720        1.0259650
 H        3.8466350        5.6939780       -0.3780640
 C       -5.6907960        0.6926080       -3.7241770
 C       -6.7480530        1.7936180       -4.0150970
 H       -6.1625330       -0.1003120       -3.1220750
 H       -5.3913350        0.2286660       -4.6774800
 H       -7.1075330        2.2568000       -3.0841080
 H       -7.6157870        1.3632740       -4.5385620
 H       -6.3293880        2.5908850       -4.6472950
 C       -2.0093230        5.2495320       -0.1368190
 C       -2.5189460        4.6966310        1.2226500
 C       -1.5356500        6.7195440        0.0990320
 C       -3.1952160        5.3498140       -1.1505020
 H       -1.7728480        4.8225890        2.0130340
 H       -2.7881430        3.6368580        1.1726730
 H       -3.4186930        5.2516650        1.5293790
 H       -2.3773180        7.2961780        0.5105790
 H       -1.2295870        7.2064630       -0.8361080
 H       -0.7138920        6.7946090        0.8207740
 H       -3.7507590        4.4142510       -1.2558960
 H       -2.8451700        5.6526790       -2.1484660
 H       -3.9070430        6.1132000       -0.8016890
 C        0.5844110        3.7583430        3.5040510
 C       -0.2543440        3.2077630        4.6496140
 O        0.4370500        4.9465830        3.1076460
 H       -0.8767450        4.0049580        5.0724390
 H       -0.8908640        2.3959990        4.2647520
 H        0.3639950        2.7635630        5.4423000
 H        2.7500950        1.4125660       -0.0364980
 C        4.6097730        0.8195000        4.2528990
 C        5.8690930        1.7171700        4.4026680
 H        4.9250740       -0.1794190        3.9124320
 H        4.1511000        0.6828370        5.2452970
 H        6.3837940        1.8446490        3.4385610
 H        6.5805430        1.2656330        5.1114450
 H        5.6042370        2.7176130        4.7767970
