109
Mol_000177_2D_DFT last geometry from G09 out file
 Ru        0.1465460        0.3125040       -0.0430610
 C       -1.2355370       -0.5348260       -0.8587570
 Cl       -0.4671410       -0.0229690        2.2791970
 Cl        1.6651830        0.1368110       -1.9276550
 H       -2.0839390       -0.1197790       -1.4058770
 H       -1.1587010       -1.6441940       -0.8349590
 C       -0.2494020        2.2224840       -0.1538920
 N        0.7352830        3.1554140        0.1682030
 N       -1.4131740        2.9077230       -0.4623890
 C        1.8883460        2.8157510        1.0101740
 C        0.2826350        4.5968130       -0.1868970
 C        3.2333510        2.6656620        0.5449980
 C        1.6245200        2.6549040        2.3943650
 C        4.2262660        2.3548210        1.5127390
 C        3.9751730        2.1874340        2.8931710
 H        5.2418300        2.2357060        1.1531180
 C        2.6326970        2.3468860        3.3165130
 H        2.3539570        2.2152180        4.3610520
 C       -1.3119380        4.4048680       -0.0523930
 C       -2.5220160        2.3597230       -1.2270250
 C       -3.6791530        1.7606960       -0.6486020
 C       -2.4204380        2.4270780       -2.6401170
 C       -4.6959940        1.3038150       -1.5329550
 C       -4.6268760        1.3947420       -2.9405570
 H       -5.5642970        0.8349480       -1.0765990
 C       -3.4421110        1.9633180       -3.4803530
 H       -3.3013150        2.0373700       -4.5581450
 C       -5.7535990        0.8876660       -3.8826990
 C       -5.1858120       -0.2276820       -4.8192910
 C       -6.9645500        0.2938240       -3.1095160
 C       -6.2736290        2.0792500       -4.7507900
 H       -4.3556110        0.1370220       -5.4395520
 H       -5.9729670       -0.5933820       -5.4963370
 H       -4.8159460       -1.0823300       -4.2331900
 H       -7.7303640       -0.0394580       -3.8251250
 H       -7.4337420        1.0359920       -2.4466310
 H       -6.6785390       -0.5794330       -2.5046930
 H       -6.6885950        2.8764620       -4.1157260
 H       -7.0682230        1.7363360       -5.4310430
 H       -5.4759570        2.5196230       -5.3647890
 C        0.7837090        4.8501990       -1.6620090
 C        0.6770000        6.2523020       -2.3223760
 H        1.8438470        4.5902090       -1.6502580
 H        0.3133930        4.1069090       -2.3206590
 H        0.9814230        7.0665730       -1.6526360
 H       -0.3256460        6.4885190       -2.6947480
 H        1.3552260        6.2788300       -3.1906180
 C        0.8320220        5.6697020        0.8028820
 C        2.3158170        6.1090550        0.7333420
 H        0.2157620        6.5680070        0.6547740
 H        0.6415840        5.3306880        1.8265770
 H        3.0014930        5.3149800        1.0417400
 H        2.4589720        6.9509410        1.4299490
 H        2.6200170        6.4577530       -0.2607000
 C       -2.1073990        5.3587880       -0.9975840
 C       -3.6521180        5.4388520       -0.9056700
 H       -1.7161960        6.3690090       -0.8106140
 H       -1.8533660        5.1208410       -2.0352020
 H       -4.0121160        5.7245160        0.0898550
 H       -4.1416400        4.5023060       -1.1871370
 H       -3.9984840        6.2133590       -1.6091750
 C       -1.8732750        4.4717820        1.4200920
 C       -2.0807660        5.8299800        2.1453770
 H       -2.8543760        3.9923490        1.3648880
 H       -1.2626750        3.8192720        2.0573700
 H       -2.5262890        6.5994530        1.5023610
 H       -1.1582670        6.2442640        2.5659480
 H       -2.7734120        5.6723590        2.9878880
 C        3.6563110        2.8747420       -0.9103530
 C        4.8868050        2.0755410       -1.4110010
 H        2.8114050        2.6277690       -1.5602270
 H        3.8756700        3.9482180       -1.0564510
 C        5.1255530        2.2678030       -2.9286980
 H        5.8005870        2.3864050       -0.8770620
 H        4.7352660        1.0055810       -1.2017920
 C        6.3589590        1.4990150       -3.4523700
 H        5.2491340        3.3442590       -3.1484260
 H        4.2301020        1.9344100       -3.4786100
 H        6.2502870        0.4159640       -3.2833970
 H        7.2820690        1.8268960       -2.9467980
 H        6.4959890        1.6562670       -4.5341730
 H        0.6002410        2.7376790        2.7455530
 C        5.0841060        1.8236690        3.9184760
 C        4.7482720        0.4382910        4.5609740
 C        6.4955450        1.7246630        3.2739750
 C        5.1416170        2.9147110        5.0359550
 H        3.7816420        0.4511400        5.0827200
 H        5.5225380        0.1588810        5.2922600
 H        4.7013920       -0.3481980        3.7931330
 H        6.8065550        2.6755320        2.8157550
 H        6.5426350        0.9383140        2.5064040
 H        7.2361520        1.4732880        4.0474830
 H        5.3837380        3.9006720        4.6108400
 H        5.9172700        2.6617530        5.7751130
 H        4.1873640        3.0051760        5.5728020
 C       -3.8552180        1.4780790        0.8425220
 C       -5.0929140        2.1407920        1.5118410
 H       -3.9550340        0.3862560        0.9665670
 H       -2.9491320        1.7468890        1.3916290
 C       -5.2274540        1.7657060        3.0077900
 H       -5.0339900        3.2375130        1.4151350
 H       -6.0130790        1.8383410        0.9849870
 C       -6.4515800        2.4118730        3.6934890
 H       -4.3089000        2.0608120        3.5437970
 H       -5.2937390        0.6677080        3.1014990
 H       -6.5121400        2.1191450        4.7535590
 H       -7.3917900        2.1040410        3.2079150
 H       -6.3999250        3.5121020        3.6531570
 H       -1.5099690        2.8298970       -3.0809400
