103
Mol_000178_2D_DFT last geometry from G09 out file
 Ru        0.1073560        0.3610760       -0.2036550
 C       -1.2762110       -0.5573760       -0.9336600
 Cl       -0.2464890       -0.2217530        2.1213810
 Cl        1.4124290        0.5185680       -2.2478020
 H       -2.2312000       -0.1995050       -1.3216090
 H       -1.0866120       -1.6502460       -1.0214600
 C       -0.4196840        2.2400900       -0.1564780
 N        0.5112640        3.2042240        0.2293890
 N       -1.6006950        2.8791890       -0.4843290
 C        1.6107750        2.9127190        1.1562020
 C        0.0305100        4.6263390       -0.1685590
 C        2.9886560        2.7814710        0.7844820
 C        1.2513050        2.7868790        2.5230340
 C        3.9190460        2.5336300        1.8287870
 C        3.5657750        2.4100280        3.1899750
 H        4.9702380        2.4315120        1.5652550
 C        2.1995520        2.5437970        3.5260750
 H        1.8719150        2.4371920        4.5614190
 C       -1.5646100        4.3886040       -0.0939100
 C       -2.6830090        2.2810830       -1.2481400
 C       -3.8365620        1.6855930       -0.6507930
 C       -2.5668180        2.3125730       -2.6607820
 C       -4.8627540        1.2363460       -1.5255120
 C       -4.7767110        1.3032610       -2.9336430
 H       -5.7602740        0.8026260       -1.0844700
 C       -3.5873250        1.8304720       -3.4948870
 H       -3.4581380        1.8627730       -4.5783530
 C       -5.9114010        0.8180110       -3.8207080
 H       -6.6827050        0.2896300       -3.2441060
 H       -5.5452200        0.1328650       -4.6010110
 H       -6.4007530        1.6607540       -4.3367210
 C        0.5871400        4.8604190       -1.6285950
 C        0.4764240        6.2412810       -2.3403380
 H        0.1687820        4.0868500       -2.2875020
 H        1.6539100        4.6315870       -1.5630050
 C        1.4517270        6.3285070       -3.5397390
 H        0.6970420        7.0649920       -1.6462080
 H       -0.5388980        6.4205380       -2.7145880
 H        1.2644330        5.5225240       -4.2669870
 H        1.3406730        7.2884460       -4.0684970
 H        2.5009930        6.2438690       -3.2156730
 C        0.5079170        5.7337640        0.8192140
 C        1.9799290        6.2274130        0.8015520
 H        0.2909070        5.4076420        1.8420930
 H       -0.1294980        6.6103060        0.6311920
 C        2.1769970        7.4197150        1.7676080
 H        2.2842280        6.5398580       -0.2062070
 H        2.6579840        5.4215540        1.1016020
 H        1.9264360        7.1428290        2.8041110
 H        3.2245070        7.7592460        1.7597960
 H        1.5457110        8.2789850        1.4875960
 C       -2.3468310        5.2951620       -1.0959470
 C       -3.8989140        5.3520200       -1.0630980
 H       -2.0518930        5.0295140       -2.1163780
 H       -1.9845360        6.3200560       -0.9287490
 C       -4.4392330        6.3596390       -2.1056940
 H       -4.2632020        5.6503290       -0.0708330
 H       -4.3299650        4.3669840       -1.2720650
 H       -4.1449180        6.0764170       -3.1287840
 H       -5.5393190        6.3997450       -2.0760360
 H       -4.0634950        7.3789230       -1.9186520
 C       -2.1959460        4.4722710        1.3494550
 C       -2.4649240        5.8378510        2.0503130
 H       -1.6066890        3.8410450        2.0274500
 H       -3.1680200        3.9784650        1.2586500
 C       -3.4906660        5.6837860        3.1994460
 H       -2.8431820        6.5841980        1.3372380
 H       -1.5432450        6.2568870        2.4714620
 H       -3.1501180        4.9467810        3.9441810
 H       -3.6407090        6.6411080        3.7230860
 H       -4.4716250        5.3497860        2.8257140
 C        3.5101820        2.9588540       -0.6428270
 C        4.7255600        2.0882480       -1.0567660
 H        2.7007020        2.7537130       -1.3484070
 H        3.7951590        4.0187390       -0.7762360
 C        5.1199640        2.3046730       -2.5382630
 H        5.6044100        2.3145260       -0.4307610
 H        4.4807860        1.0263220       -0.8983970
 C        6.3320600        1.4519430       -2.9742440
 H        5.3495820        3.3733820       -2.7042110
 H        4.2573910        2.0636550       -3.1801790
 H        6.5842220        1.6309140       -4.0316640
 H        6.1204340        0.3771090       -2.8587840
 H        7.2260210        1.6849280       -2.3726670
 H        0.2014450        2.8503650        2.7950540
 C        4.6106320        2.1062250        4.2502980
 H        4.6254790        1.0285030        4.4853720
 H        4.4011840        2.6388060        5.1900090
 H        5.6213900        2.3835250        3.9195620
 C       -4.0082870        1.4901870        0.8570580
 C       -4.4513890        0.0698990        1.3088100
 H       -3.0663700        1.7199380        1.3638010
 H       -4.7588230        2.2107490        1.2303160
 C       -4.5574270       -0.0453640        2.8488720
 H       -5.4261750       -0.1928130        0.8662520
 H       -3.7239300       -0.6715970        0.9454140
 C       -4.9943690       -1.4490600        3.3227980
 H       -5.2753060        0.7063150        3.2249040
 H       -3.5793450        0.1974280        3.2954980
 H       -5.0613890       -1.4931610        4.4213560
 H       -4.2716760       -2.2159900        3.0024540
 H       -5.9813200       -1.7235190        2.9155610
 H       -1.6503660        2.7010360       -3.1015790
