85
Mol_000318_2D_DFT last geometry from G09 out file
 Ru        0.3913120       -0.0695020       -0.2284190
 C       -1.0683410       -0.9659410       -0.8219000
 Cl        0.2054640       -0.6098760        2.1190250
 Cl        1.5093710       -0.0625190       -2.4015760
 H       -2.0237890       -0.6019300       -1.2018230
 H       -0.9194160       -2.0683160       -0.8337220
 C       -0.0266180        1.8462970       -0.1568570
 N        0.9011700        2.7437840        0.3899200
 N       -1.0864690        2.5734260       -0.6780390
 C        0.5521080        4.1983680        0.0807430
 C        1.8790520        2.3842020        1.4399120
 C       -0.8771710        4.0905620       -0.5952090
 H        0.4678520        4.7267120        1.0387300
 H       -0.7890000        4.4483790       -1.6279680
 C        1.5156830        2.5965020        2.8124510
 C        3.1722850        1.8489340        1.1339460
 C        2.4525340        2.3261430        3.8283510
 C        3.7346750        1.8173690        3.5388610
 H        2.1768880        2.4823130        4.8702500
 C        4.0652120        1.5673440        2.1956600
 H        5.0434510        1.1549690        1.9581740
 C       -2.2005030        1.9976200       -1.4274380
 C       -2.2143390        2.0941340       -2.8570720
 C       -3.2943080        1.3741100       -0.7413100
 C       -3.3511950        1.6457630       -3.5643640
 C       -4.4670430        1.0979330       -2.8972170
 H       -3.3638070        1.7162240       -4.6494440
 C       -4.4119900        0.9522640       -1.4960690
 H       -5.2578110        0.4911640       -0.9866050
 C       -1.0510930        2.6331170       -3.6700960
 H       -1.0940640        3.7295920       -3.7707150
 H       -1.0813340        2.2198260       -4.6865800
 H       -0.0875170        2.3591450       -3.2348290
 C       -3.3387140        1.0728530        0.7502800
 H       -4.1136320        1.6727060        1.2511240
 H       -2.3859470        1.2280520        1.2565260
 H       -3.6104740        0.0185460        0.9055260
 C        1.6789070        4.9771590       -0.7633630
 C        2.9422760        5.1864180        0.1289410
 C        2.0548710        4.2493710       -2.0837480
 C        1.2270410        6.4147300       -1.1687100
 H        2.6820590        5.6811810        1.0778580
 H        3.6566470        5.8384520       -0.3953940
 H        3.4607680        4.2586470        0.3692000
 H        1.2762060        4.3760740       -2.8467810
 H        2.2214840        3.1807380       -1.9493170
 H        2.9780620        4.6845540       -2.4944750
 H        1.0436960        7.0610200       -0.3013540
 H        0.3359570        6.4199190       -1.8070510
 H        2.0390170        6.8739800       -1.7517370
 C       -5.6945730        0.6323300       -3.6142790
 O       -5.6001790        0.8212520       -4.9961770
 O       -6.7031320        0.1301780       -3.0662250
 C       -6.7605380        0.3815690       -5.8016470
 H       -6.4860790        0.6182610       -6.8352770
 H       -6.9271910       -0.6971030       -5.6762060
 H       -7.6660420        0.9256500       -5.4998280
 C       -2.0913550        4.9480740        0.0303270
 C       -2.5682870        4.4772100        1.4300410
 C       -1.6983490        6.4495990        0.1937210
 C       -3.3053090        4.9459560       -0.9553740
 H       -2.7059470        3.3994060        1.4874300
 H       -3.5344890        4.9506840        1.6595850
 H       -1.8704040        4.7780630        2.2192250
 H       -2.5415230        6.9731440        0.6681720
 H       -1.5092080        6.9442500       -0.7659800
 H       -0.8258930        6.5933070        0.8414390
 H       -3.8327530        3.9898250       -0.9874980
 H       -2.9970010        5.2017970       -1.9803710
 H       -4.0303730        5.7084950       -0.6342610
 C        0.1438900        3.0607340        3.2592920
 H       -0.6464350        2.6725430        2.6153370
 H        0.0701490        4.1591400        3.2798050
 H       -0.0563050        2.7076200        4.2785650
 C        3.7219200        1.5740730       -0.2556840
 H        4.4629460        2.3394840       -0.5362670
 H        2.9657980        1.5339720       -1.0348120
 H        4.2436800        0.6070900       -0.2686580
 C        4.6698130        1.5481890        4.6737200
 O        5.8775630        0.9906340        4.2413490
 O        4.4282350        1.7856230        5.8800610
 C        6.8669650        0.6701570        5.2923350
 H        7.7190320        0.2450350        4.7508530
 H        7.1597070        1.5792740        5.8357580
 H        6.4499970       -0.0573240        6.0022330
