75
Mol_000314_2D_DFT last geometry from G09 out file
 Ru       -0.1866600        0.4741020        0.2417940
 C       -1.4961430       -0.1589330       -0.8460020
 Cl       -1.3467630        0.3376310        2.3582900
 Cl        1.6958500       -0.1471070       -1.1431630
 H       -2.1202520        0.3755960       -1.5649620
 H       -1.6507250       -1.2575330       -0.7785530
 C       -0.1818380        2.4084170       -0.0536040
 N        0.7996320        3.2232100        0.5123910
 N       -1.0173320        3.2293280       -0.8003910
 C        0.7182290        4.6552980        0.0618310
 C        1.9450140        2.7765240        1.3004590
 C        0.6811940        5.7049680        1.2138090
 C       -0.5326410        4.6575570       -0.8689040
 H        1.6180000        4.8659850       -0.5301340
 C       -0.6989080        5.9400160        1.7898860
 H        1.4021370        5.4183780        1.9892880
 H        1.0608840        6.6527040        0.7877110
 C       -1.7784770        5.9543600        0.9729130
 H       -0.8000620        6.1078610        2.8639530
 C       -1.6049950        5.7287670       -0.5138420
 H       -2.7806250        6.1371810        1.3641930
 H       -2.5544140        5.4688210       -0.9984770
 H       -1.2748620        6.6711590       -0.9901960
 H       -0.2202020        4.8498370       -1.9048950
 C        1.8158540        2.6239610        2.7171980
 C        3.2078740        2.5700970        0.6529410
 C        2.9378770        2.1633510        3.4499680
 C        4.1635780        1.8950510        2.8191940
 H        2.8369180        2.0207250        4.5274290
 C        4.2940740        2.1152440        1.4370320
 H        5.2484250        1.9147790        0.9479020
 C       -2.1249430        2.8460150       -1.6583470
 C       -1.8671220        2.6567910       -3.0543380
 C       -3.4443370        2.7137550       -1.1206780
 C       -2.9565070        2.3616280       -3.9070300
 C       -4.2633720        2.2410640       -3.3979260
 H       -2.7715780        2.2080450       -4.9713380
 C       -4.4956360        2.4035050       -2.0214820
 H       -5.5067190        2.2790290       -1.6361530
 C        0.5636510        2.9739780        3.5045880
 H       -0.2898850        3.2120890        2.8694580
 H        0.7652170        3.8388800        4.1586880
 H        0.2654280        2.1374080        4.1485210
 C        3.4673760        2.8154960       -0.8318590
 C        4.4008680        4.0284510       -1.1186320
 H        3.9340390        1.9133620       -1.2532460
 H        2.5279840        2.9383820       -1.3808000
 C        4.6523540        4.2430920       -2.6309580
 H        3.9738650        4.9492780       -0.6844380
 H        5.3676880        3.8763950       -0.6116460
 C        5.5885650        5.4338510       -2.9346330
 H        3.6870470        4.3970050       -3.1458700
 H        5.0828840        3.3215060       -3.0599420
 H        5.7440240        5.5509990       -4.0187820
 H        6.5771090        5.2925080       -2.4691170
 H        5.1723270        6.3798340       -2.5518300
 H        5.0107660        1.5248460        3.3991180
 C       -0.4676940        2.7153380       -3.6498180
 H        0.2783520        2.2514240       -2.9946450
 H       -0.1472950        3.7510330       -3.8510430
 H       -0.4411570        2.1832790       -4.6100360
 C       -3.7383410        2.8022160        0.3763240
 C       -4.9959940        3.6259010        0.7674840
 H       -3.8525930        1.7754230        0.7557010
 H       -2.8694290        3.2087320        0.9024270
 C       -5.2106580        3.7531580        2.2992810
 H       -4.9156570        4.6382590        0.3349200
 H       -5.9027830        3.1773950        0.3297510
 C       -5.5559400        2.4324770        3.0266100
 H       -6.0296620        4.4745820        2.4693750
 H       -4.3100070        4.1936080        2.7612410
 H       -5.7783960        2.6227010        4.0885720
 H       -4.7268780        1.7114840        2.9897340
 H       -6.4438630        1.9541270        2.5817150
 H       -5.0915370        2.0040330       -4.0681810
