85
Mol_000401_2D_DFT last geometry from G09 out file
 Ru        0.3453320        0.2760820       -0.5145980
 C       -1.1855650       -0.5890240       -0.9566080
 Cl        0.5066310       -0.3236840        1.8197170
 Cl        1.1929420        0.3467570       -2.8113880
 H       -2.1692210       -0.1955740       -1.2138650
 H       -1.0606330       -1.6927100       -1.0227680
 C       -0.0463930        2.1834300       -0.3264520
 N        0.9820980        3.0539720        0.0679200
 N       -1.1661480        2.9297300       -0.6772560
 C        0.6403490        4.5123890       -0.2635840
 C        2.0503920        2.7445300        1.0613110
 C       -0.8655120        4.4367500       -0.7501600
 H        0.6926150        5.0794150        0.6750700
 H       -0.8890620        4.6960210       -1.8145950
 C        1.7755440        3.0641040        2.4331180
 C        3.3438240        2.2134910        0.7154630
 C        2.8093920        2.9950300        3.3941330
 C        4.1014540        2.5802850        3.0432400
 H        2.5787110        3.2470280        4.4309110
 C        4.3385680        2.1667460        1.7261840
 H        5.3228550        1.7791870        1.4684300
 C       -2.3898560        2.3523170       -1.2521120
 C       -2.5495310        2.3628020       -2.6777650
 C       -3.4217350        1.7984410       -0.4137580
 C       -3.7475640        1.8637220       -3.2413660
 C       -4.7742850        1.3474750       -2.4342150
 H       -3.8608030        1.8713500       -4.3263320
 C       -4.5965440        1.3106160       -1.0431090
 H       -5.3876130        0.8903810       -0.4235870
 C       -1.4884620        2.8639810       -3.6427670
 H       -0.4810700        2.5854380       -3.3266880
 H       -1.5320240        3.9579550       -3.7694570
 H       -1.6481170        2.4241170       -4.6358090
 C       -3.3727990        1.6764210        1.1248480
 C       -3.4126570        0.2011620        1.6229650
 C       -4.5409550        2.4558900        1.8046010
 H       -2.4233460        2.0936050        1.4752970
 H       -4.3210810       -0.3183970        1.2842610
 H       -3.4103650        0.1870770        2.7234910
 H       -2.5375580       -0.3654170        1.2913680
 H       -4.3809810        2.4912270        2.8932980
 H       -5.5049350        1.9553790        1.6329220
 H       -4.6337780        3.4858120        1.4407250
 C        1.6948080        5.2023130       -1.2697410
 C        2.9914890        5.5380320       -0.4676430
 C        2.0070840        4.3126930       -2.5044620
 C        1.2189610        6.5697750       -1.8529460
 H        2.7671460        6.2250190        0.3638350
 H        3.7146780        6.0449150       -1.1238440
 H        3.4806990        4.6602070       -0.0456520
 H        1.1664660        4.3017390       -3.2100830
 H        2.2314170        3.2806970       -2.2439080
 H        2.8718350        4.7252350       -3.0444270
 H        1.9999160        6.9282810       -2.5404450
 H        1.0878170        7.3409810       -1.0861400
 H        0.2957040        6.4904430       -2.4397290
 H       -5.6921910        0.9652270       -2.8836840
 C       -1.9347450        5.4311170       -0.0698210
 C       -2.1807850        5.1875680        1.4416770
 C       -1.4742790        6.9184060       -0.1789610
 C       -3.2903550        5.3702770       -0.8445400
 H       -2.3769680        4.1439840        1.6788670
 H       -3.0529820        5.7743690        1.7657610
 H       -1.3285900        5.5226840        2.0438870
 H       -1.3967210        7.2637970       -1.2160870
 H       -0.5207370        7.1038840        0.3281610
 H       -2.2301600        7.5454200        0.3169780
 H       -3.1429720        5.5155020       -1.9251950
 H       -3.9423750        6.1843630       -0.4934670
 H       -3.8305920        4.4328380       -0.7039710
 C        0.4010680        3.4201390        2.9663970
 H       -0.3949760        3.1742380        2.2679480
 H        0.3263670        4.4875640        3.2245960
 H        0.2134880        2.8518600        3.8884290
 C        3.7477380        1.5921610       -0.6350320
 C        4.0613490        0.0731960       -0.4625780
 C        4.9619520        2.2861450       -1.3159010
 H        2.9053060        1.6596970       -1.3267170
 H        4.1778030       -0.3932200       -1.4509390
 H        3.2584940       -0.4529250        0.0701010
 H        4.9910600       -0.0845700        0.1032750
 H        5.8762060        2.1947690       -0.7113360
 H        4.7861130        3.3522180       -1.4998100
 H        5.1588440        1.8054950       -2.2863810
 H        4.8964060        2.5390540        3.7894930
