67
Mol_000402_2D_DFT last geometry from G09 out file
 Ru       -0.0579260        0.4717840        0.5439380
 C       -1.3597460       -0.3512360       -0.4212160
 Cl       -1.0599880        0.6870640        2.7123180
 Cl        1.8130960       -0.4427650       -0.6614620
 H       -1.9240670        0.0116350       -1.2817940
 H       -1.5338440       -1.4089200       -0.1318470
 C       -0.1614300        2.3484140        0.0249690
 N        0.8066720        3.2605620        0.4541910
 N       -1.1246350        3.0772000       -0.6795580
 C        0.4203510        4.6749270        0.1843350
 C        1.9914140        2.8983090        1.2188750
 C       -0.7403600        4.5159860       -0.8380500
 H        0.0632290        5.0997920        1.1285570
 H       -0.3914800        4.6558890       -1.8664290
 C        2.0264160        2.9721960        2.6498290
 C        3.1616610        2.4613360        0.5130140
 C        3.2058030        2.5705310        3.3314030
 C        4.3363760        2.1200360        2.6390240
 H        3.1985390        2.6116190        4.4187590
 C        4.3133950        2.0716990        1.2382400
 H        5.1832300        1.7303290        0.6857580
 C       -2.2529300        2.5231830       -1.4058420
 C       -2.1426120        2.2067880       -2.7917370
 C       -3.4827070        2.2499160       -0.7291170
 C       -3.2479260        1.6416280       -3.4768820
 C       -4.4617520        1.4026140       -2.8148230
 H       -3.1346950        1.3813460       -4.5285030
 C       -4.5703560        1.6955190       -1.4456520
 H       -5.4956280        1.4920890       -0.9128640
 C       -0.9023960        2.3351210       -3.6491190
 O       -0.4305390        3.6384390       -3.7209190
 O       -0.4342690        1.3922650       -4.3186450
 C        0.7361660        3.8828320       -4.6149860
 H        0.8625610        4.9700450       -4.6051810
 H        1.6152240        3.3788260       -4.2019980
 H        0.5135470        3.5157950       -5.6249440
 C       -3.6956200        2.5614920        0.7295390
 O       -4.6371630        1.6940340        1.2791670
 O       -3.1534230        3.4780960        1.3768220
 C       -4.9442140        1.8714330        2.7186540
 H       -5.6924440        1.1018680        2.9354470
 H       -4.0352260        1.7146010        3.3111290
 H       -5.3470490        2.8770950        2.9025090
 C        1.5171880        5.6729100       -0.2991790
 F        2.7689040        5.4743730        0.3118380
 F        1.7419850        5.7265830       -1.6858720
 F        1.1119070        6.9806520        0.0773500
 H       -5.3082030        0.9793310       -3.3555680
 C       -1.8441610        5.6059050       -0.6588690
 F       -3.0945190        5.2419900       -1.1832630
 F       -2.0537640        6.0603540        0.6528610
 F       -1.4379160        6.7498530       -1.4015010
 C        0.9409080        3.4278310        3.6024300
 O       -0.0348350        4.2274490        3.0330900
 O        0.9564060        3.1561800        4.8231740
 C       -1.1415420        4.6529330        3.9318590
 H       -1.6164280        3.7672180        4.3684880
 H       -0.7450800        5.2994410        4.7258790
 H       -1.8354030        5.1858860        3.2785260
 C        3.2452620        2.4382150       -0.9934180
 O        4.4382470        1.8600930       -1.4196960
 O        2.4079980        2.8990560       -1.7980770
 C        4.6030870        1.6796980       -2.8773190
 H        5.5735400        1.1837670       -2.9845270
 H        3.7943050        1.0481170       -3.2679490
 H        4.6014820        2.6523810       -3.3886350
 H        5.2280720        1.8124700        3.1851700
