85
M00000178_2D_DFT last geometry from G09 out file
 Ru        0.1940030       -0.0339560       -0.1603680
 C       -1.3867770       -0.8265640       -0.5611180
 Cl        0.2229650       -0.4248610        2.2244070
 Cl        1.1165640       -0.1515020       -2.4097960
 H       -2.3509110       -0.3837110       -0.8159480
 H       -1.3298090       -1.9374580       -0.5814820
 C       -0.0865590        1.8943450       -0.1433570
 N        0.9977090        2.7388310        0.1312760
 N       -1.1852070        2.6820570       -0.4468140
 C        0.6846960        4.1876450       -0.2024810
 C        2.0480210        2.4224790        1.1157010
 C       -0.8744940        4.1757860       -0.3963010
 H        0.9501520        4.7830790        0.6790310
 H       -1.1208310        4.5751880       -1.3879560
 C        1.7853350        2.8081130        2.4562470
 C        3.2880830        1.7944990        0.8132570
 C        2.7091570        2.5986170        3.4868070
 C        3.9504300        1.9696940        3.2182110
 H        2.4464640        2.8998610        4.5013140
 C        4.1979010        1.5856080        1.8860730
 H        5.1446540        1.0934510        1.6508230
 C       -2.3828230        2.2155550       -1.1386380
 C       -2.4126650        2.3400530       -2.5484380
 C       -3.5141980        1.6788640       -0.4597150
 C       -3.5473510        1.9838190       -3.2947180
 C       -4.7025400        1.4784570       -2.6484870
 H       -3.5191820        2.0880590       -4.3796260
 C       -4.6452550        1.3300230       -1.2444280
 H       -5.5137320        0.9167950       -0.7264800
 H       -1.5238710        2.6958470       -3.0654700
 C       -3.5702520        1.4284690        1.0399470
 H       -3.9787540        2.2960990        1.5802160
 H       -2.5870720        1.2018980        1.4628370
 H       -4.2310640        0.5782210        1.2595530
 C        1.5345650        4.7812190       -1.4201590
 C        3.0329890        4.8861980       -1.0044260
 C        1.4020520        3.9281260       -2.7117740
 C        1.0801010        6.2351020       -1.7577540
 H        3.1514970        5.4575130       -0.0705180
 H        3.5979740        5.4130620       -1.7881150
 H        3.4988500        3.9107750       -0.8630780
 H        1.6038760        2.8674030       -2.5392950
 H        2.1149180        4.2894290       -3.4681470
 H        0.3991950        4.0137970       -3.1542010
 H        1.6968940        6.6116130       -2.5872500
 H        1.2172130        6.9200240       -0.9102620
 H        0.0340630        6.2936420       -2.0849490
 C       -5.9632530        1.0774500       -3.4259430
 C       -5.6961790       -0.1070770       -4.3969430
 C       -6.5990650        2.2847570       -4.1705210
 H       -6.7048370        0.7278520       -2.6876570
 H       -5.2847010       -0.9750960       -3.8603520
 H       -4.9813490        0.1685650       -5.1864660
 H       -6.6317150       -0.4201700       -4.8860230
 H       -6.8265950        3.1058440       -3.4740120
 H       -7.5382790        1.9818550       -4.6589190
 H       -5.9296200        2.6790630       -4.9496390
 C       -1.7411180        5.0326120        0.6421790
 C       -1.6877710        4.4708550        2.0903210
 C       -1.2327390        6.5080100        0.6942280
 C       -3.2214240        5.1205070        0.1546880
 H       -0.7323270        4.7077490        2.5767940
 H       -1.8311250        3.3874640        2.1245220
 H       -2.4768180        4.9368000        2.6993940
 H       -1.8448560        7.0633720        1.4204200
 H       -1.3321780        7.0154080       -0.2740740
 H       -0.1895740        6.5915890        1.0233720
 H       -3.7491730        4.1668390        0.2054090
 H       -3.2785270        5.4791970       -0.8846030
 H       -3.7719900        5.8383910        0.7811980
 H        0.8216980        3.2462490        2.6963460
 C        3.7293020        1.3178620       -0.5599430
 H        4.7295200        1.7119240       -0.7982320
 H        3.0434500        1.5999470       -1.3573280
 H        3.8052100        0.2205420       -0.5832260
 C        4.9806840        1.6897290        4.3194450
 C        4.4402260        0.6762300        5.3677100
 C        5.4854610        2.9922840        5.0003960
 H        5.8539660        1.2188110        3.8368710
 H        3.5806310        1.0847910        5.9197520
 H        5.2237650        0.4273850        6.1006090
 H        4.1130570       -0.2557110        4.8836770
 H        4.6747570        3.5123250        5.5326130
 H        5.9053210        3.6903620        4.2602410
 H        6.2721850        2.7605710        5.7353420
