79
M00000183_2D_DFT last geometry from G09 out file
 Ru        0.3137540        0.2983590       -0.7388220
 C       -1.2042430       -0.4712780       -1.3664660
 Cl        0.3113080       -0.4431230        1.5559180
 Cl        1.3059170        0.5510960       -2.9550740
 H       -2.1455620       -0.0162490       -1.6767040
 H       -1.1100090       -1.5682060       -1.5258300
 C       -0.0566310        2.1776480       -0.4126510
 N        1.0064230        3.0261060       -0.0505120
 N       -1.2004960        2.9443310       -0.5821800
 C        0.6371020        4.4891810       -0.2719430
 C        1.9977590        2.6919400        1.0028550
 C       -0.9178470        4.4474000       -0.4948010
 H        0.8657070        5.0210860        0.6586820
 H       -1.1451660        4.8540290       -1.4881900
 C        1.5765570        3.0057030        2.3226070
 C        3.3044350        2.1464520        0.7942400
 C        2.4140900        2.8462510        3.4357120
 C        3.7174300        2.3475250        3.2405270
 H        2.0488100        3.0884210        4.4348330
 C        4.1290480        1.9994430        1.9450960
 H        5.1283120        1.5860970        1.8133670
 C       -2.4180980        2.4764740       -1.2484570
 C       -2.4940220        2.7267640       -2.6424340
 C       -3.5031520        1.8280900       -0.5729440
 C       -3.6347170        2.3918200       -3.3912670
 C       -4.7283640        1.7884330       -2.7368070
 H       -3.6617310        2.5869450       -4.4640840
 C       -4.6446420        1.5111340       -1.3605700
 H       -5.4911410        1.0239810       -0.8772650
 H       -1.6337210        3.1648590       -3.1452470
 C       -3.5184760        1.4242530        0.9162040
 C       -3.6628860       -0.1133920        1.1176050
 C       -4.6485170        2.1401180        1.7151300
 H       -2.5546810        1.7035870        1.3563490
 H       -3.6628880       -0.3419880        2.1937300
 H       -2.8261890       -0.6608540        0.6718060
 H       -4.6028780       -0.4964900        0.6933480
 H       -4.5989190        3.2317900        1.6323430
 H       -4.5681090        1.8792090        2.7814320
 H       -5.6447770        1.8224490        1.3734930
 C        1.4919630        5.1988710       -1.4245980
 C        2.9369940        5.4216830       -0.8923870
 C        1.5240540        4.3648340       -2.7326180
 C        0.9432010        6.6140360       -1.7839910
 H        2.9376170        6.0781410       -0.0077870
 H        3.5547090        5.9044520       -1.6643530
 H        3.4195540        4.4862120       -0.6127550
 H        0.5288640        4.2901170       -3.1948410
 H        1.8901520        3.3483510       -2.5751700
 H        2.1815820        4.8546860       -3.4664930
 H        1.5902310        7.0464740       -2.5616840
 H        0.9605360        7.2999400       -0.9282680
 H       -0.0750840        6.5921970       -2.1942720
 H       -5.6287690        1.5229060       -3.2931740
 C       -1.8263300        5.2830740        0.5257510
 C       -1.8371360        4.6938710        1.9634490
 C       -1.3251110        6.7569180        0.6493540
 C       -3.2779420        5.3913850       -0.0379970
 H       -0.8999690        4.9156440        2.4910190
 H       -1.9900540        3.6123920        1.9751710
 H       -2.6457850        5.1560230        2.5484350
 H       -1.9714500        7.2821590        1.3683990
 H       -1.3867710        7.2991170       -0.3018150
 H       -0.2980930        6.8309440        1.0279800
 H       -3.2753580        5.8334940       -1.0462000
 H       -3.8768790        6.0509360        0.6078870
 H       -3.7912790        4.4313960       -0.1012860
 H        0.5614980        3.3563960        2.4754360
 C        3.8682970        1.6320630       -0.5424160
 C        4.0511150        0.0837010       -0.4981310
 C        5.2230870        2.2820880       -0.9485080
 H        3.1457550        1.8521380       -1.3348370
 H        4.8578800       -0.2017720        0.1935670
 H        4.3060350       -0.2899630       -1.4997940
 H        3.1397290       -0.4306360       -0.1684150
 H        6.0310510        2.0137920       -0.2519400
 H        5.1724600        3.3771610       -0.9938390
 H        5.5153230        1.9184280       -1.9455540
 H        4.3946330        2.2122590        4.0854430
