59
Mol_000222_2D_DFT last geometry from G09 out file
 Ru       -0.4018330        0.4153830        1.8402000
 C       -2.1311170       -0.1021010        1.6303160
 Cl       -0.5781950        1.3588600        4.0503290
 Cl        0.8132840       -0.9597010        0.3007780
 H       -2.9644560        0.4564700        1.1932500
 H       -2.3791030       -1.0933860        2.0629400
 C       -0.3644030        2.0902380        0.8778210
 N        0.7008030        2.9838230        0.9921590
 N       -1.3434410        2.7301990        0.1113320
 C        2.0122490        2.6408230        1.4896450
 C        0.2861160        4.4127940        0.6373090
 C        3.0485020        2.1419180        0.6410830
 C        2.3010670        2.8270850        2.8633970
 C        4.3091730        1.8210990        1.1972210
 C        4.5845340        1.9995930        2.5703040
 H        5.0775870        1.4268820        0.5376630
 C        3.5600550        2.5189120        3.3982570
 H        3.7605230        2.6576010        4.4596500
 C       -0.8861060        4.0909960       -0.3248640
 H       -1.6909140        4.8240030       -0.2405840
 H       -0.5495690        4.0388670       -1.3722180
 C       -2.3600620        2.0837830       -0.6692930
 C       -1.9691480        1.0639560       -1.5744310
 C       -3.7321130        2.4821290       -0.6384060
 C       -2.8974120        0.4608020       -2.4326860
 C       -4.2570120        0.8659940       -2.4291190
 H       -2.5845050       -0.3199300       -3.1246880
 C       -4.6526470        1.8762700       -1.5241930
 H       -5.6910490        2.1917440       -1.4837670
 H       -0.9286250        0.7497010       -1.5889860
 C       -4.2729290        3.5242270        0.3162050
 F       -3.7368730        3.4497490        1.6179630
 F       -5.6753470        3.4371790        0.4695560
 F       -4.0325080        4.8664530       -0.1282480
 C       -0.2128970        5.1478470        1.9134940
 H       -0.9869870        4.5714560        2.4344920
 H       -0.6350690        6.1247960        1.6346470
 H        0.6142690        5.3311470        2.6114020
 C        1.3916810        5.2317660       -0.0579550
 H        2.2470140        5.4009650        0.6095050
 H        0.9852150        6.2182430       -0.3236140
 H        1.7497200        4.7564960       -0.9765000
 C       -5.2219590        0.2050900       -3.3897650
 C       -6.6904110        0.6205440       -3.3859740
 O       -4.8060520       -0.6810480       -4.1844370
 H       -6.8049800        1.6913440       -3.6165380
 H       -7.2262770        0.0365680       -4.1420910
 H       -7.1548430        0.4418310       -2.4034700
 C        2.9727850        1.9935300       -0.8673330
 F        3.6852660        3.0664130       -1.5100880
 F        1.6934690        2.0075060       -1.4460390
 F        3.6036290        0.8166960       -1.3234680
 H        1.5067990        3.1749800        3.5155620
 C        5.9281560        1.6641220        3.1867880
 C        7.0017700        0.9994730        2.3316830
 O        6.1432870        1.9347000        4.3987480
 H        7.3002150        1.6457120        1.4908990
 H        7.8816350        0.8036180        2.9540710
 H        6.6434360        0.0489910        1.9067890
