67
Mol_000225_2D_DFT last geometry from G09 out file
 Ru        0.0394580        0.1675070       -0.1525270
 C       -1.3241170       -0.5365640       -1.1198590
 Cl       -0.8240560       -0.1691170        2.0770680
 Cl        1.7880680        0.0571420       -1.8435460
 H       -2.1380110       -0.0533980       -1.6631530
 H       -1.3065340       -1.6485860       -1.1542510
 C       -0.1619640        2.1123700       -0.2144480
 N        0.7413600        2.9087650        0.4718360
 N       -1.0124560        2.9474640       -0.9130110
 C        0.5715810        4.3825460        0.2000020
 C        1.7361370        2.4239510        1.4115380
 C       -0.6026350        4.4122310       -0.8351130
 H        0.2509820        4.8459650        1.1407970
 H       -0.2093100        4.6590020       -1.8264350
 C        1.5686130        2.4571540        2.8358570
 C        2.9421360        1.9113490        0.8788200
 C        2.6288350        1.9906810        3.6561270
 C        3.8261260        1.4960670        3.1093130
 H        2.4912460        2.0049670        4.7343380
 C        3.9784860        1.4453950        1.7109440
 H        4.8905580        1.0494990        1.2624170
 C       -2.1358880        2.5074730       -1.7048200
 C       -2.0843280        2.3214990       -3.1203980
 C       -3.3400700        2.2166410       -1.0200050
 C       -3.2564020        1.8998740       -3.8014090
 C       -4.4597270        1.6633560       -3.1124340
 H       -3.2074140        1.7472270       -4.8779340
 C       -4.4963780        1.8065840       -1.7093910
 H       -5.4109280        1.5942480       -1.1540600
 C       -0.8308930        2.5229110       -3.9230460
 O       -0.7258990        1.5510800       -4.9157470
 O        0.0195380        3.4251730       -3.7649260
 C        0.5166610        1.5651910       -5.7254470
 H        0.3898090        0.7407470       -6.4348750
 H        0.6268720        2.5255180       -6.2475470
 H        1.3813010        1.3916470       -5.0723030
 H       -3.3466580        2.2929040        0.0648150
 C        1.9074480        5.0821520       -0.2333760
 C        1.7900710        6.6266750       -0.1333540
 C        2.4721760        4.6619310       -1.6123680
 H        2.6450560        4.7838800        0.5310650
 H        1.4132180        6.9457910        0.8512590
 H        1.1267380        7.0425530       -0.9062400
 H        2.7803710        7.0856220       -0.2749610
 H        3.5066150        5.0258570       -1.7130280
 H        1.8926470        5.0831600       -2.4445120
 H        2.4824640        3.5735100       -1.7453030
 H       -5.3489710        1.3509820       -3.6612520
 C       -1.6954850        5.4935240       -0.5086270
 C       -2.5910990        5.2505600        0.7315820
 C       -2.5427080        5.8946870       -1.7465210
 H       -1.0784120        6.3780740       -0.2745510
 H       -3.3919910        4.5319380        0.5203600
 H       -3.0764370        6.1965990        1.0194930
 H       -2.0256180        4.8862230        1.5949400
 H       -3.1185630        6.8064610       -1.5235340
 H       -3.2607510        5.1156380       -2.0315500
 H       -1.9073360        6.1063540       -2.6203840
 C        0.3139430        2.9315250        3.5056480
 O        0.2048020        2.4167220        4.7974950
 O       -0.5496590        3.6969590        3.0229690
 C       -1.0352400        2.7421030        5.5335810
 H       -0.9213620        2.2388000        6.4996360
 H       -1.1371330        3.8286400        5.6632970
 H       -1.9061170        2.3524350        4.9898560
 H        3.0554980        1.8645820       -0.1990240
 H        4.6206370        1.1442020        3.7685190
