101
Mol_000223_2D_DFT last geometry from G09 out file
 Ru       -0.0245740       -0.0206000       -0.3192430
 C       -1.5531820       -0.7369990       -0.9875750
 Cl       -0.3722030       -0.4908920        2.0151880
 Cl        1.3596450       -0.2677200       -2.2912730
 H       -2.4503580       -0.2422110       -1.3630970
 H       -1.5497310       -1.8480080       -1.0203830
 C       -0.2358080        1.9252300       -0.3841330
 N        0.7305340        2.7613280        0.1889190
 N       -1.1522010        2.7334760       -1.0511100
 C        0.5731350        4.2040580       -0.2324350
 C        1.6265150        2.4193490        1.3068720
 C       -0.7961320        4.2202220       -0.9966310
 H        0.5016710        4.7961650        0.6828990
 H       -0.6234020        4.5487040       -2.0279850
 C        1.2259020        2.7398360        2.6542230
 C        2.9001790        1.8033480        1.0710260
 C        2.0802810        2.3782020        3.7129980
 C        3.2917010        1.6844620        3.5108300
 H        1.8015340        2.6032100        4.7394520
 C        3.6794980        1.4118660        2.1861060
 H        4.6141100        0.8900960        1.9910560
 C       -2.3419910        2.2803770       -1.7653760
 C       -2.3379200        2.2008270       -3.2001590
 C       -3.5302420        1.9596200       -1.0229760
 C       -3.5334930        1.8356230       -3.8532080
 C       -4.7130900        1.5110360       -3.1505000
 H       -3.5658570        1.7786790       -4.9385100
 C       -4.6829080        1.5640050       -1.7405710
 H       -5.5704180        1.2901080       -1.1758440
 C       -1.1066290        2.4831510       -4.0778560
 C       -1.2802010        3.7868230       -4.9128710
 C       -0.7740310        1.2931700       -5.0227650
 H       -0.2419250        2.6070260       -3.4194060
 H       -1.4940200        4.6624630       -4.2842820
 H       -2.1037580        3.6906270       -5.6353870
 H       -0.3613900        3.9920580       -5.4831260
 H       -0.6333000        0.3637720       -4.4592100
 H        0.1647840        1.5006950       -5.5585210
 H       -1.5576210        1.1333240       -5.7773730
 C       -3.6156880        1.9458890        0.5063830
 C       -4.8253660        2.7175000        1.1089830
 H       -2.6903910        2.3266200        0.9473040
 H       -3.6831080        0.8957010        0.8376970
 C       -4.9201620        2.5803190        2.6444580
 H       -5.7665720        2.3496690        0.6719430
 H       -4.7602320        3.7835970        0.8365230
 H       -4.0301590        2.9867260        3.1451840
 H       -5.7985360        3.1206000        3.0307150
 H       -5.0157460        1.5250520        2.9454660
 C        1.8322580        4.7545900       -1.0009810
 C        1.9230360        6.3021610       -0.9383590
 C        2.0031060        4.2744100       -2.4619500
 H        2.6878970        4.3760750       -0.4230760
 H        2.8865950        6.6318960       -1.3552420
 H        1.8633320        6.6786210        0.0938490
 H        1.1315460        6.7882750       -1.5268050
 H        3.0152940        4.5237550       -2.8137580
 H        1.2996700        4.7754210       -3.1419200
 H        1.8744460        3.1916390       -2.5679410
 C       -5.9424470        1.1185130       -3.9354050
 C       -7.2119250        0.7062220       -3.1906640
 O       -5.9247590        1.1303960       -5.1980490
 H       -7.5852830        1.5244990       -2.5550930
 H       -7.9842260        0.4452680       -3.9227420
 H       -7.0291160       -0.1619450       -2.5384950
 C       -1.9489060        5.1357520       -0.4094530
 C       -2.9910010        5.5205780       -1.4975490
 C       -1.4683870        6.4591240        0.2475010
 H       -2.4575940        4.5575790        0.3735570
 H       -2.5304290        6.1665390       -2.2621190
 H       -3.8145980        6.0918230       -1.0429840
 H       -3.4296820        4.6573870       -2.0044810
 H       -0.9558120        7.1114150       -0.4723110
 H       -0.8090190        6.3117940        1.1092330
 H       -2.3493450        7.0084220        0.6124740
 C       -0.0696530        3.4799220        3.0378750
 C        0.2542730        4.8972230        3.6025620
 C       -0.9341490        2.6943410        4.0639630
 H       -0.6855190        3.6017580        2.1393900
 H       -0.6753180        5.4580830        3.7858250
 H        0.8841750        5.4873870        2.9204820
 H        0.7913780        4.8239070        4.5586900
 H       -1.8622380        3.2494890        4.2687760
 H       -0.4140900        2.5664580        5.0231810
 H       -1.1933780        1.6999990        3.6843250
 C        3.5118000        1.5334490       -0.3016980
 C        4.8810700        2.2359990       -0.5415830
 H        2.8222740        1.8111600       -1.0980600
 H        3.6676790        0.4494990       -0.4143080
 C        5.4994140        1.8701590       -1.9098890
 H        5.5925580        1.9596610        0.2527900
 H        4.7598630        3.3295580       -0.4729790
 H        4.8388760        2.1550110       -2.7426900
 H        6.4643690        2.3814230       -2.0541330
 H        5.6782050        0.7862790       -1.9884370
 C        4.1118830        1.2840300        4.7127670
 C        5.3452780        0.4026880        4.5191190
 O        3.7811510        1.6674820        5.8699910
 H        6.1055850        0.9115740        3.9056400
 H        5.7779620        0.1747720        5.4996440
 H        5.0858520       -0.5384960        4.0105020
