62
Mol_000166_2D_DFT last geometry from G09 out file
 Ru       -0.2280560       -0.0120120       -0.0766300
 C        1.4392820       -0.4145240        0.5178100
 Cl        0.1554120        0.0474860       -2.4607020
 Cl       -1.5017530       -0.7070270        1.8624610
 H        2.2001950        0.2373780        0.9534840
 H        1.7073350       -1.4895710        0.4231310
 C       -0.4059510        1.9110640        0.1937590
 N        0.4181350        2.8449320        0.7894010
 N       -1.5625260        2.5722460       -0.1985330
 C       -0.1807090        4.2175380        0.8006420
 C        1.8234340        2.7261280        1.0873540
 C       -1.6111560        4.0102650        0.2391270
 H        0.4116700        4.8791340        0.1513490
 H       -0.1828250        4.6099740        1.8215840
 H       -1.7641380        4.6233890       -0.6538150
 C        2.2968080        2.6515710        2.4232520
 C        2.7508540        2.7338460        0.0190210
 C        3.6918620        2.5611410        2.6509490
 C        4.6300630        2.5727580        1.5918950
 H        4.0560030        2.4974610        3.6780550
 C        4.1328550        2.6574900        0.2667800
 H        4.8274200        2.6582530       -0.5750950
 C       -2.6733030        1.9901960       -0.9180480
 C       -2.8616530        2.1694360       -2.3282260
 C       -3.6130020        1.2317440       -0.1862050
 C       -3.9926900        1.5578970       -2.9296900
 C       -4.9383420        0.7993080       -2.2039140
 H       -4.1450460        1.6773540       -4.0011170
 C       -4.7264930        0.6450420       -0.8143370
 H       -5.4279840        0.0621780       -0.2147260
 C       -1.9215920        2.9691370       -3.2039070
 C       -1.7741930        2.5761190       -4.6731560
 O       -1.2718470        3.9539320       -2.7540360
 H       -2.6575080        2.8860380       -5.2552220
 H       -0.8990560        3.0926000       -5.0835070
 H       -1.6502170        1.4919680       -4.7869650
 H       -3.4530730        1.0953740        0.8793770
 C       -2.7274740        4.3012930        1.2455840
 C       -3.7523590        5.2241860        0.9319160
 N       -2.6703490        3.6558950        2.4486850
 C       -4.7499300        5.4954320        1.8932720
 H       -3.7686210        5.7181580       -0.0401760
 C       -4.6950430        4.8334510        3.1370390
 H       -5.5490400        6.2055570        1.6754110
 C       -3.6378640        3.9229240        3.3649900
 H       -5.4431910        5.0135080        3.9094630
 H       -3.5542590        3.3878790        4.3130310
 C       -6.1239960        0.1477070       -2.8947230
 H       -6.2916440        0.5618900       -3.8983140
 H       -7.0499790        0.2781910       -2.3147780
 H       -5.9634070       -0.9373600       -3.0074400
 C        1.3651360        2.7179730        3.6304450
 C        1.1304610        1.4374340        4.4140100
 O        0.8294700        3.8088540        3.9520020
 H        0.4604740        0.7826270        3.8325900
 H        2.0641820        0.8790280        4.5751000
 H        0.6513130        1.6628460        5.3744270
 H        2.3756060        2.7745650       -1.0034880
 C        6.1237260        2.5176760        1.8650510
 H        6.3404530        2.1525960        2.8783280
 H        6.5776480        3.5184460        1.7713040
 H        6.6400710        1.8604020        1.1497700
