79
M00000093_2D_DFT last geometry from G09 out file
Ru        0.4877560        0.1966090       -0.5059860
C       -0.9839560       -0.7187700       -1.0388080
Cl        0.5392620       -0.4952220        1.8090430
Cl        1.4685540        0.4005480       -2.7368180
H       -1.9839210       -0.3725940       -1.3040930
H       -0.7964900       -1.8104660       -1.1435560
C        0.0331990        2.0957630       -0.2894580
N        0.9639870        2.9789770        0.2823570
N       -1.0160410        2.8346810       -0.8012950
C        0.6502120        4.4319530       -0.0483510
C        1.8924670        2.6380140        1.3695440
C       -0.7677350        4.3542440       -0.7492410
H        0.5739690        4.9741400        0.8987420
H       -0.6237270        4.6294380       -1.7951690
C        1.5887170        3.0156890        2.7273640
C        3.1435370        1.9999840        1.1130230
C        2.5253650        2.7809590        3.7636420
C        3.7461940        2.1419620        3.5031630
H        2.2688950        3.0796400        4.7761920
C        4.0321210        1.7501320        2.1909980
H        4.9740410        1.2440150        1.9713090
C       -2.1975540        2.2399760       -1.4119350
C       -2.4160320        2.2448830       -2.8320110
C       -3.1716970        1.6088700       -0.5681480
C       -3.6234110        1.7285420       -3.3668410
C       -4.6167370        1.1995910       -2.5289080
H       -3.7631690        1.7348380       -4.4453520
C       -4.3715080        1.1244350       -1.1492510
H       -5.1158360        0.6716520       -0.4917880
C       -1.4219350        2.7392460       -3.8470230
O       -1.4000380        1.8897830       -4.9503470
O       -0.7194770        3.7717670       -3.7867320
C       -0.4162680        2.2053500       -6.0123720
H       -0.5828780        1.4372020       -6.7748590
H       -0.5912030        3.2119010       -6.4169030
H        0.5996710        2.1365480       -5.6038140
C       -2.9954240        1.3672310        0.9210970
H       -2.1644820        1.9116020        1.3612380
H       -2.8101070        0.2985160        1.1060010
H       -3.9148540        1.6360820        1.4615570
C        1.8019410        5.1733060       -0.8916710
C        3.0856590        5.3227240       -0.0164360
C        2.1540440        4.4556420       -2.2232390
C        1.3791900        6.6299430       -1.2613500
H        3.6124200        4.3778230        0.1305730
H        2.8575710        5.7440600        0.9750270
H        3.7851770        6.0120680       -0.5128470
H        1.3526880        4.5484160       -2.9627180
H        2.3530910        3.3913440       -2.0900010
H        3.0582070        4.9143070       -2.6524240
H        2.1619540        7.0639710       -1.9010310
H        1.2925970        7.2750990       -0.3762850
H        0.4430800        6.6736980       -1.8294760
H       -5.5512010        0.8262100       -2.9492950
C       -1.9696620        5.3311710       -0.2341240
C       -3.1119380        4.6651870        0.5845490
C       -1.4545680        6.4998060        0.6647000
C       -2.6166410        5.9662460       -1.5084090
H       -2.7286690        4.1274160        1.4524420
H       -3.7209650        3.9907810       -0.0214160
H       -3.7831800        5.4585730        0.9481730
H       -2.3008980        7.1703720        0.8762220
H       -0.6798770        7.1047400        0.1905960
H       -1.0812350        6.1408200        1.6323760
H       -3.0286190        5.1979560       -2.1755850
H       -1.8942690        6.5582340       -2.0885680
H       -3.4410620        6.6358330       -1.2198940
C        0.2643540        3.5520850        3.1682650
O        0.3856420        4.3265870        4.3351930
O       -0.8470960        3.3444300        2.6390780
C       -0.8748750        4.7810310        4.9615470
H       -0.5560210        5.3216260        5.8593380
H       -1.4283460        5.4444930        4.2834070
H       -1.5068100        3.9212710        5.2240960
C        3.6434720        1.5601860       -0.2497970
H        4.6056110        2.0450640       -0.4781300
H        2.9611600        1.7780290       -1.0663760
H        3.8268150        0.4753440       -0.2579440
H        4.4518920        1.9469940        4.3111230
