49
M00000092_2D_DFT last geometry from G09 out file
Ru        0.2407590       -0.1264200        0.0982480
C       -0.7926710       -0.6526270       -1.3014490
Cl       -1.0263570       -0.6845980        2.0610520
Cl        2.3656840       -0.1554630       -1.0527120
H       -1.2922900       -0.0170640       -2.0414810
H       -0.8638260       -1.7471910       -1.4678880
C       -0.1092360        1.7795650        0.0685660
N        0.7536130        2.7031100        0.6489640
N       -1.1277140        2.5035640       -0.5416840
C        1.7707430        2.3586790        1.6109260
C        0.4576270        4.1512750        0.2540940
C        3.1365860        2.2307210        1.2636420
C        1.4318610        2.1828010        2.9769080
C        4.1068000        1.9237370        2.2384080
C        3.7283160        1.7323350        3.5847750
H        5.1495550        1.8130280        1.9406750
C        2.3760760        1.8616940        3.9625100
H        2.0488000        1.7210890        4.9917720
C       -0.9591640        3.9769360       -0.3656750
H       -1.7474850        4.3446590        0.3085630
H       -1.0543130        4.4893900       -1.3284650
C       -2.4101930        2.0395610       -0.9777560
C       -2.8998660        2.3709950       -2.2639550
C       -3.2789130        1.3218490       -0.1180440
C       -4.1793790        2.0149090       -2.7113080
C       -5.0185410        1.2846440       -1.8431740
H       -4.4946430        2.2962120       -3.7153830
C       -4.5633820        0.9374310       -0.5519240
H       -5.2075990        0.3737300        0.1232320
F       -2.0637680        3.0848520       -3.1498690
H       -2.9285780        1.0508530        0.8751770
C        0.4168850        5.0704990        1.5169620
C       -0.0072520        6.5377560        1.2697560
H       -0.2759910        4.6201120        2.2414670
H        1.4121420        5.0715630        1.9867300
H       -0.9856910        6.6138920        0.7716800
H        0.7242390        7.0932220        0.6668850
H       -0.0946990        7.0571360        2.2363700
C        1.5140690        4.6695790       -0.7774900
C        1.6996440        3.8630350       -2.0817440
H        1.2261500        5.6988740       -1.0426590
H        2.4825490        4.7501630       -0.2585410
H        2.0125450        2.8292450       -1.8943850
H        2.4774740        4.3418550       -2.6968950
H        0.7825220        3.8300290       -2.6864500
H       -6.0155010        0.9938160       -2.1755510
H        3.4237470        2.3299200        0.2211300
F        0.0993810        2.3547970        3.3802010
H        4.4755860        1.4796510        4.3378870
