79
Mol_000057_2D_DFT last geometry from G09 out file
 Ru       -0.0055920        0.3383430        0.7529930
 C       -0.8983910       -0.5157100       -0.6090700
 Cl       -1.8402720        0.0167260        2.3908940
 Cl        2.1748560       -0.0233160       -0.3491470
 H       -1.4007370       -0.1088670       -1.4938490
 H       -0.9268240       -1.6264210       -0.5491100
 C       -0.2483520        2.1882430        0.2794590
 N        0.6579530        3.1891250        0.6773210
 N       -1.2950270        2.8392860       -0.3771870
 C        0.2408850        4.5181500        0.1608030
 C        1.9836440        3.0371600        1.2085180
 C       -1.2645970        4.3366670       -0.1165730
 H        0.7753670        4.7592400       -0.7729700
 H        0.4543320        5.2972930        0.9019260
 C       -2.1579050        4.7537170        1.1004680
 C       -1.7947490        5.2616490       -1.2387720
 C       -2.3804930        6.2872070        0.9440000
 H       -1.7013210        4.4799010        2.0610650
 H       -3.1148690        4.2209990        1.0303810
 C       -1.9965640        6.6282580       -0.5362400
 H       -3.4269930        6.5498910        1.1575370
 H       -1.7611360        6.8601140        1.6503210
 H       -1.0676690        7.2192090       -0.5658770
 H       -2.7697900        7.2283640       -1.0379910
 H       -2.7606790        4.8768970       -1.5914600
 H       -1.1232060        5.3099190       -2.1037190
 C        3.0124720        3.8904780        0.7457700
 C        2.3315800        2.0692490        2.1943980
 C        4.3369260        3.7950380        1.1960550
 C        4.7054450        2.8053040        2.1512580
 H        5.0740060        4.4743040        0.7758080
 C        3.6612780        1.9665370        2.6404970
 H        3.8958410        1.2105540        3.3798450
 C       -2.4308200        2.2397820       -1.0393200
 C       -2.5512430        2.2026670       -2.4748460
 C       -3.5052090        1.7572070       -0.2615060
 C       -3.7625380        1.7084500       -3.0301190
 C       -4.8573590        1.2515260       -2.2383850
 H       -3.8305350        1.6420020       -4.1098960
 C       -4.6935810        1.2699470       -0.8209050
 H       -5.4709250        0.9091530       -0.1533390
 H        2.7951790        4.6356650       -0.0166690
 N        1.2759570        1.2145310        2.7484330
 C        1.7367940       -0.0665700        3.3702330
 C        0.4642130        1.9973350        3.7480410
 H        0.8461790       -0.6672580        3.5913780
 H        2.2876070        0.0912330        4.3163220
 H        2.3724400       -0.6093210        2.6622620
 H        1.0950000        2.2959570        4.6050820
 H       -0.3718250        1.3816810        4.0896430
 H        0.0606020        2.8962530        3.2738240
 N        6.0282640        2.6657190        2.6026100
 C        6.3929090        1.5643060        3.5020350
 C        7.0845610        3.5249890        2.0546530
 H        5.8753980        1.6381350        4.4749950
 H        7.4707630        1.5945570        3.7001990
 H        6.1591240        0.5767150        3.0648670
 H        7.2303980        3.3717700        0.9691370
 H        8.0343490        3.3034370        2.5555920
 H        6.8640560        4.5934580        2.2204170
 N       -1.5269510        2.6816680       -3.3466080
 C       -0.1625190        2.1137920       -3.2864670
 C       -1.8946360        3.1248480       -4.6994660
 H        0.1039910        1.8100050       -2.2766430
 H        0.5707860        2.8635510       -3.6242690
 H       -0.0614850        1.2254090       -3.9432380
 H       -1.0898880        3.7670410       -5.0900270
 H       -2.8194790        3.7158590       -4.6735430
 H       -2.0297640        2.2940240       -5.4246830
 H       -3.3883030        1.7420730        0.8189750
 N       -6.0391990        0.7808810       -2.8317340
 C       -6.1835230        0.7519930       -4.2917170
 C       -7.0973240        0.1948490       -1.9968790
 H       -6.0238530        1.7500770       -4.7338970
 H       -7.2002060        0.4355430       -4.5531660
 H       -5.4774510        0.0492850       -4.7729560
 H       -7.9174590       -0.1537860       -2.6355740
 H       -7.5147020        0.9308040       -1.2880060
 H       -6.7331110       -0.6694530       -1.4138890
