67
Mol_000061_2D_DFT last geometry from G09 out file
 Ru        0.2809980        0.0674400       -0.0769970
 C       -1.2365560       -0.6905220       -0.7372000
 Cl       -0.0307840       -0.5304490        2.2234130
 Cl        1.6389340       -0.2753620       -2.0267560
 H       -2.1483750       -0.2002490       -1.0814990
 H       -1.2072330       -1.7981710       -0.7922300
 C       -0.0652130        1.9497440       -0.1356320
 N        0.8921350        2.8827020        0.3601470
 N       -1.1431510        2.7164350       -0.6433640
 C        2.0383490        2.5102290        1.2178650
 C        0.5661090        4.2312800       -0.0303100
 C        3.3173220        2.2431800        0.6439550
 C        1.8246530        2.4760780        2.6307290
 C        4.3885290        1.8795470        1.5144380
 C        4.1712930        1.7558200        2.9157110
 C        2.9072440        2.0997180        3.4753690
 C       -0.9740220        4.1280050       -0.3660440
 C       -2.3316390        2.2164450       -1.3453320
 C       -3.4932370        1.8622680       -0.5981320
 C       -2.2836030        2.1289070       -2.7680370
 C       -4.6729360        1.5088690       -1.3162010
 C       -4.6598550        1.4476240       -2.7404450
 C       -3.4679560        1.7438130       -3.4644260
 Cl        1.5136650        4.7889650       -1.6532030
 Cl        1.0526080        5.5247730        1.1843880
 Cl       -1.5918810        5.2552410       -1.6930860
 Cl       -2.0203420        4.7054710        1.1757850
 C        3.5919110        2.3233190       -0.8467350
 H        2.6826340        2.3691320       -1.4407500
 H        4.1533580        1.4459240       -1.1888870
 H        4.1877240        3.2176780       -1.0866160
 C        0.4850350        2.8093270        3.2642820
 H        0.1603680        2.0015870        3.9315420
 H       -0.3048490        2.9606310        2.5318300
 H        0.5519870        3.7325820        3.8597630
 C        5.7740600        1.6246080        0.9288300
 H        5.8967630        0.5735780        0.6139110
 H        6.5682960        1.8457690        1.6509340
 H        5.9622930        2.2465380        0.0465360
 C        5.2885260        1.2394670        3.8176360
 H        5.9404790        0.5349550        3.2884860
 H        4.8907430        0.7105280        4.6909800
 H        5.9263950        2.0587710        4.1926540
 C        2.7037010        2.0496930        4.9860420
 H        1.9280640        2.7466980        5.3198130
 H        3.6208240        2.3067790        5.5295300
 H        2.3943750        1.0424450        5.3150500
 C       -3.4854230        1.7518790        0.9200700
 H       -2.4839600        1.8393810        1.3409210
 H       -3.8839580        0.7752110        1.2315340
 H       -4.1071360        2.5257880        1.3911920
 C       -1.0007430        2.3899850       -3.5435290
 H       -0.7338220        1.5153510       -4.1538070
 H       -0.1505820        2.5934980       -2.8946270
 H       -1.1066020        3.2501100       -4.2201280
 C       -5.9554320        1.1797340       -0.5594580
 H       -5.9563570        1.5934670        0.4534950
 H       -6.1070800        0.0901090       -0.4662430
 H       -6.8374090        1.5829180       -1.0737630
 C       -5.9312070        1.0418020       -3.4782960
 H       -6.4482450        0.2173830       -2.9693590
 H       -5.7350720        0.7169680       -4.5040610
 H       -6.6444840        1.8822120       -3.5331080
 C       -3.4703090        1.6590000       -4.9880720
 H       -2.5477030        2.0406570       -5.4311300
 H       -4.2997600        2.2395780       -5.4182320
 H       -3.5890560        0.6190610       -5.3347380
