85
M00000142_2D_DFT last geometry from G09 out file
Ru        1.0784330        1.2097490       -1.0243230
C       -0.2290260        0.1293060       -1.6652620
Cl        1.4815970        0.1333470        1.0993870
Cl        1.7933930        2.0547480       -3.1843370
H       -1.2972470        0.3085130       -1.7910680
H        0.1526570       -0.8533620       -2.0206400
C        0.2717900        2.8805190       -0.4226080
N        1.1008540        3.8712640        0.1246040
N       -1.0053800        3.3991610       -0.5454660
C        0.4007440        5.2298390        0.1887500
C        2.2262140        3.5725380        1.0183930
C       -1.0980500        4.8812580       -0.1652590
H        0.4619790        5.5747030        1.2285180
H       -1.3646140        5.4095650       -1.0879290
C        1.9199180        3.4096000        2.3968540
C        3.6068500        3.4741400        0.6508150
C        2.8559980        3.2214290        3.4139640
C        4.2125490        3.1789800        3.0432670
H        2.5221940        3.0960380        4.4425830
C        4.5620600        3.2948130        1.6895210
H        5.6154530        3.2506080        1.4165960
C       -2.0767910        2.7527220       -1.2776290
C       -2.3407000        3.1714560       -2.6047370
C       -2.9209460        1.7382690       -0.7172550
C       -3.3811290        2.6728520       -3.3966920
C       -4.2175360        1.6932330       -2.8305030
H       -3.5136630        3.0419060       -4.4124000
C       -3.9821680        1.2404720       -1.5182180
H       -4.6383190        0.4776760       -1.1042980
F       -1.5219040        4.1614390       -3.1768750
C       -2.7336110        1.2058870        0.7053430
C       -2.9884120       -0.3102390        0.9243550
H       -1.7205110        1.4325150        1.0506380
H       -3.4215830        1.7573690        1.3693080
C       -2.6758290       -0.7431320        2.3781460
H       -4.0373160       -0.5663010        0.7010810
H       -2.3625460       -0.8984620        0.2352010
C       -2.9252670       -2.2464670        2.6291780
H       -3.2929390       -0.1501300        3.0770650
H       -1.6240670       -0.5066010        2.6063970
H       -2.6940260       -2.5156450        3.6717110
H       -2.2905440       -2.8677130        1.9773900
H       -3.9758240       -2.5202060        2.4376850
C        1.0981940        6.3521420       -0.7208050
C        2.4540470        6.7644400       -0.0699150
C        1.3192330        5.8836970       -2.1852310
C        0.2531800        7.6622080       -0.7866980
H        2.3142990        7.0912120        0.9728940
H        2.8873960        7.6102700       -0.6242420
H        3.1894890        5.9602120       -0.0746310
H        1.9186140        6.6346550       -2.7219060
H        0.3713450        5.7749080       -2.7263670
H        1.8399150        4.9273240       -2.2512140
H        0.1220170        8.1303250        0.1968990
H       -0.7340940        7.5129040       -1.2402580
H        0.7892000        8.3823290       -1.4225440
H       -5.0438730        1.2830420       -3.4120720
C       -2.2396860        5.2719150        0.8947450
C       -2.1670500        4.5004020        2.2402190
C       -2.1587400        6.7897480        1.2506600
C       -3.6503070        5.0724110        0.2517550
H       -2.0281340        3.4274350        2.1066250
H       -3.1026950        4.6582630        2.7983100
H       -1.3466070        4.8619470        2.8697580
H       -2.3391180        7.4366660        0.3833200
H       -1.1994940        7.0682070        1.7028660
H       -2.9397820        7.0106000        1.9932120
H       -4.4090560        5.5493510        0.8899820
H       -3.9303930        4.0215130        0.1470120
H       -3.7153980        5.5435570       -0.7409930
F        0.5684650        3.4302780        2.7833830
C        4.1555330        3.5755110       -0.7725330
C        5.0285860        2.3664400       -1.2210130
H        3.3476490        3.7003910       -1.4951890
H        4.7849090        4.4807070       -0.8351540
C        5.6992800        2.6025680       -2.5952070
H        5.8125750        2.1602930       -0.4751910
H        4.4019600        1.4635920       -1.2722820
C        6.5361380        1.3953050       -3.0729120
H        6.3485400        3.4952250       -2.5351340
H        4.9239010        2.8244830       -3.3448450
H        5.9054030        0.4996800       -3.1887110
H        7.3387450        1.1514810       -2.3576730
H        7.0065220        1.6002800       -4.0476550
H        4.9831580        3.0436280        3.8027830
