79
Mol_000166_2D_DFT last geometry from G09 out file
 Ru       -0.1943810       -0.0105450        0.7571400
 C       -1.3945300       -0.7527410       -0.3863250
 Cl       -1.5883420        0.1192170        2.7333590
 Cl        1.8131510       -0.8393590       -0.3078900
 H       -1.9389170       -0.2809530       -1.2079280
 H       -1.5762620       -1.8376620       -0.2295940
 C       -0.1940390        1.8770970        0.2558840
 N        0.7300860        2.7914720        0.7943910
 N       -1.0270770        2.5802140       -0.5967820
 C        0.5738100        4.1930820        0.2197680
 C        2.0017340        2.3763500        1.4045240
 C       -0.6706660        4.0198170       -0.6917350
 H        1.4590120        4.3765670       -0.4048010
 C        3.1548480        2.2587130        0.5704590
 C        2.0848710        2.1535640        2.8111980
 C        4.4023720        1.9103950        1.1581090
 C        4.4854740        1.6196000        2.5498600
 C        3.3354030        1.7597630        3.3769980
 C       -2.1975490        2.1622040       -1.3506700
 C       -3.4838840        2.2300390       -0.7423160
 C       -2.0316150        1.8118270       -2.7234460
 C       -4.6270900        1.8825210       -1.5212400
 C       -4.4747920        1.4917250       -2.8839090
 C       -3.1858010        1.4899450       -3.4942130
 C        0.4955840        5.4603850        1.1716670
 C       -0.7114870        5.4545440        2.1483240
 C        1.8151460        5.6428720        1.9776490
 C        0.3697380        6.6989450        0.2221880
 H       -0.6924840        6.3679220        2.7619940
 H       -0.6835120        4.5976710        2.8285430
 H       -1.6776880        5.4410850        1.6246200
 H        1.8060850        6.6200050        2.4842410
 H        2.6966940        5.6179680        1.3195030
 H        1.9481740        4.8726300        2.7415070
 H        0.3786060        7.6232030        0.8182230
 H       -0.5629390        6.6961720       -0.3593900
 H        1.2130530        6.7531970       -0.4844470
 H       -0.4616360        4.2876000       -1.7369590
 H       -1.5241680        4.6227440       -0.3601050
 C        3.0845270        2.4394390       -0.9400150
 H        2.0585200        2.4237880       -1.3092500
 H        3.6066560        1.6192040       -1.4471940
 H        3.5565160        3.3820080       -1.2662110
 C        0.8832570        2.3505060        3.7216040
 H       -0.0211790        2.5659040        3.1564830
 H        1.0556440        3.1767860        4.4305190
 H        0.6712650        1.4509200        4.3122530
 C        5.6459670        1.8061430        0.2812190
 H        6.5637820        2.0075270        0.8456750
 H        5.6195830        2.5163530       -0.5539960
 H        5.7436330        0.7971150       -0.1562930
 C        5.8088740        1.1408820        3.1403710
 H        6.3112690        0.4319310        2.4689000
 H        5.6733360        0.6315880        4.0992740
 H        6.5083260        1.9779810        3.3106270
 C        3.4493180        1.4946470        4.8764760
 H        2.5825500        1.8590790        5.4336350
 H        4.3378990        1.9786690        5.3066250
 H        3.5340720        0.4146420        5.0858020
 C       -3.6433400        2.6518610        0.7111330
 H       -4.2387700        3.5754690        0.7952490
 H       -2.6820200        2.8199550        1.1967450
 H       -4.1541940        1.8760340        1.2976540
 C       -0.6452090        1.7478200       -3.3510480
 H       -0.5021420        2.5410410       -4.1033450
 H       -0.4814150        0.7874740       -3.8607840
 H        0.1418570        1.8463750       -2.6016360
 C       -6.0209270        1.9251060       -0.9021790
 H       -6.0397960        2.4708760        0.0450860
 H       -6.3990360        0.9094360       -0.6945500
 H       -6.7465770        2.4079040       -1.5720750
 C       -5.6983040        1.0785730       -3.6964700
 H       -6.4747860        0.6308060       -3.0658180
 H       -5.4462550        0.3427540       -4.4690110
 H       -6.1560450        1.9432060       -4.2087780
 C       -3.0477570        1.1354110       -4.9720850
 H       -3.1084150        0.0456300       -5.1369810
 H       -2.0940080        1.4702690       -5.3912810
 H       -3.8445600        1.5957910       -5.5721280
