79
M00000379_2D_DFT last geometry from G09 out file
 Ru        0.1150840       -0.0896340        0.2455420
 C       -1.4488170       -0.8478560       -0.2844750
 Cl       -0.1920000       -0.2599930        2.6270240
 Cl        1.4083780       -0.6154980       -1.7220340
 H       -2.3495220       -0.3770600       -0.6815370
 H       -1.4644200       -1.9546790       -0.1910690
 C       -0.1276450        1.8082250       -0.0342320
 N        0.8819880        2.7194090        0.3344000
 N       -1.1660620        2.5477440       -0.6126680
 C        0.5634140        4.1112210       -0.0590610
 C        1.9716050        2.4499560        1.2857480
 C       -0.8667270        4.0030700       -0.6662650
 H        0.5909960        4.7727850        0.8154490
 H       -0.8941250        4.3545390       -1.7053210
 C        1.7507650        2.7045940        2.6740220
 C        3.2458920        1.9972760        0.8316940
 C        2.7981780        2.4436740        3.5850420
 C        4.0572950        1.9432640        3.1844840
 H        2.5971590        2.6258040        4.6374910
 C        4.2446510        1.7394580        1.7993320
 H        5.2034850        1.3752970        1.4311840
 C       -2.3241780        2.0478000       -1.3534280
 C       -2.2309610        1.8913680       -2.7666900
 C       -3.5459840        1.7730070       -0.6711160
 C       -3.3859460        1.4844080       -3.4771050
 C       -4.6236240        1.2259590       -2.8462950
 H       -3.2913660        1.3672320       -4.5535880
 C       -4.6614640        1.3688060       -1.4381690
 H       -5.5852280        1.1603370       -0.8991800
 C       -0.9463880        2.1294370       -3.5452930
 H       -0.7643450        3.2011940       -3.7283610
 H       -1.0059300        1.6493490       -4.5304050
 H       -0.0675060        1.7211130       -3.0360930
 C       -3.7101940        1.8635130        0.8389750
 H       -4.1845070        2.8129900        1.1283210
 H       -2.7624060        1.7843110        1.3773280
 H       -4.3632220        1.0553820        1.1976670
 C        1.5574470        4.7566170       -1.0684180
 F        2.8260980        4.9649580       -0.5059460
 F        1.7296040        4.0142110       -2.2537600
 F        1.0860160        6.0322740       -1.4681450
 C       -5.8950940        0.7866520       -3.6244330
 C       -7.0362650        1.8262860       -3.3787890
 C       -5.6564440        0.6901760       -5.1577630
 C       -6.3538890       -0.6196250       -3.1188730
 H       -7.2963340        1.9104640       -2.3147130
 H       -7.9454210        1.5269340       -3.9221650
 H       -6.7407540        2.8254180       -3.7323500
 H       -4.8888050       -0.0564690       -5.4094500
 H       -5.3556040        1.6564500       -5.5890150
 H       -6.5878460        0.3836880       -5.6556110
 H       -5.5690320       -1.3726850       -3.2855710
 H       -7.2559200       -0.9420520       -3.6608760
 H       -6.5938580       -0.6148270       -2.0466950
 C       -1.8783670        4.9248920        0.0757140
 F       -3.1384090        4.9456910       -0.5465850
 F       -2.0818380        4.5887080        1.4283300
 F       -1.4111360        6.2616210        0.0671150
 C        0.4461140        3.2537210        3.2275830
 H        0.3843550        4.3495360        3.1180320
 H        0.3700480        3.0384600        4.3004340
 H       -0.4323290        2.8137390        2.7486070
 C        3.6358910        1.8179680       -0.6258340
 H        2.7915570        1.8567140       -1.3123630
 H        4.1259540        0.8470030       -0.7757370
 H        4.3539970        2.6004380       -0.9169760
 C        5.1971840        1.6164590        4.1883040
 C        6.4587960        2.4728740        3.8453910
 C        4.8018540        1.9139970        5.6622940
 C        5.5522560        0.0977220        4.0817120
 H        6.8290020        2.2745620        2.8301980
 H        7.2746490        2.2448540        4.5483190
 H        6.2361540        3.5481180        3.9181150
 H        3.9387560        1.3133630        5.9849140
 H        4.5635880        2.9767390        5.8185360
 H        5.6428320        1.6645100        6.3257070
 H        4.6773150       -0.5266380        4.3161760
 H        6.3549900       -0.1558890        4.7910710
 H        5.8972660       -0.1742330        3.0747010
