81
Mol_000127_2D_DFT last geometry from G09 out file
Ru       -0.0821320       -0.1759740        0.1733310
C       -1.3305100       -0.9802370       -0.8705320
Cl       -1.1653220       -0.1583710        2.3401240
Cl        1.7883380       -0.5246690       -1.3364130
H       -1.9951450       -0.5512800       -1.6239100
H       -1.3631740       -2.0863890       -0.7586760
C       -0.3199400        1.7339790       -0.1045120
N        0.6381910        2.6200360        0.3639900
N       -1.3373410        2.4821440       -0.6678710
C        1.7403810        2.2297020        1.2246670
C        0.4069780        4.0417510       -0.1769430
C        3.0111120        1.8923920        0.7022150
C        1.5533080        2.2046810        2.6277590
C        4.0682530        1.5549300        1.5659240
C        3.8989780        1.5355040        2.9758670
H        5.0393380        1.3138090        1.1338420
C        2.6139410        1.8622470        3.4854140
H        2.4265690        1.8096840        4.5578220
C       -1.1979780        3.9814020       -0.3013350
C       -2.5081960        1.9342980       -1.3092760
C       -3.6088600        1.4649790       -0.5536130
C       -2.5682600        1.8567390       -2.7202060
C       -4.7516960        0.9598820       -1.2006520
C       -4.8365130        0.8948080       -2.6178060
H       -5.5930500        0.6262510       -0.5931840
C       -3.7129690        1.3479330       -3.3617310
H       -3.7173160        1.2692050       -4.4489680
C       -6.0523310        0.3562250       -3.2999940
C       -6.7672600       -0.7475590       -2.7605530
C       -6.5287800        0.9312690       -4.5094000
C       -7.9127150       -1.2564330       -3.4048110
H       -6.4103960       -1.2306470       -1.8503080
C       -8.3737350       -0.6734000       -4.6052480
H       -8.4378580       -2.1115900       -2.9755850
C       -7.6749150        0.4238960       -5.1538380
H       -9.2606420       -1.0674100       -5.1043020
H       -8.0258110        0.8889560       -6.0769170
H       -6.0186220        1.7967120       -4.9340010
C        1.1795380        4.0871670       -1.5549120
C        1.3060260        5.4071250       -2.3620570
H        2.1993740        3.7580780       -1.3177410
H        0.7651980        3.3052380       -2.2076110
H        1.5539870        6.2730820       -1.7353090
H        0.4028500        5.6577370       -2.9294160
H        2.1222490        5.2925620       -3.0931710
C        0.8924410        5.1525120        0.8046310
C        2.4042780        5.4707910        0.9260970
H        0.3821070        6.0801500        0.5070490
H        0.5270480        4.9096160        1.8085290
H        2.9802000        4.6370320        1.3380960
H        2.5233080        6.3225950        1.6151260
H        2.8641420        5.7598090       -0.0264470
C       -1.7547700        4.9301000       -1.4080350
C       -3.2830460        5.1553120       -1.5373230
H       -1.2930330        5.9138010       -1.2393850
H       -1.3847900        4.5828960       -2.3794080
H       -3.7322250        5.5842830       -0.6339640
H       -3.8307190        4.2406490       -1.7824350
H       -3.4585970        5.8710730       -2.3568140
C       -1.9800750        4.1465050        1.0611310
C       -2.1805290        5.5441440        1.7083340
H       -2.9815510        3.7434270        0.8631200
H       -1.5311950        3.4703900        1.8019000
H       -2.4362490        6.3253510        0.9815070
H       -1.3059300        5.8901330        2.2699760
H       -3.0159780        5.4815370        2.4238020
H        3.1653000        1.8628960       -0.3722380
H        0.5700540        2.4143330        3.0430140
C        5.0248440        1.1693370        3.8876580
C        5.2083960        1.8364250        5.1291890
C        5.9441560        0.1422410        3.5408800
C        6.2704520        1.4926460        5.9895560
H        4.5339200        2.6455290        5.4120770
C        7.1757120        0.4703510        5.6304390
H        6.3948620        2.0258900        6.9339460
C        7.0054510       -0.2035320        4.4013680
H        7.9973780        0.2023560        6.2968990
H        7.6910700       -1.0039350        4.1172180
H        5.8098470       -0.4107740        2.6106800
H       -3.5580780        1.4674400        0.5332270
H       -1.7081440        2.1694480       -3.3116540
