63
Mol_000083_2D_DFT last geometry from G09 out file
 Ru       -0.3066890       -0.1615350        0.2376700
 C        1.4403560       -0.4888470        0.6113050
 Cl       -0.2524580       -0.6660850       -2.1223890
 Cl       -1.3357600       -0.3815480        2.4305440
 H        2.2718780        0.2181500        0.6581780
 H        1.6885700       -1.5624250        0.7579430
 C       -0.4058020        1.7775650        0.1636490
 N        0.4292560        2.7746950        0.6606210
 N       -1.5189640        2.4098710       -0.3943560
 C       -0.0719630        4.1397490        0.3054840
 C        1.8331660        2.6645630        1.0189020
 C       -1.5168290        3.9007410       -0.2102910
 H        0.5676720        4.5798800       -0.4746840
 H       -0.0444780        4.8034010        1.1775840
 H       -1.6459630        4.3565580       -1.1985550
 C        2.3194320        2.4352150        2.3596490
 C        2.7505050        2.8177390       -0.0504490
 C        3.7456830        2.3391700        2.5044460
 C        4.6315950        2.4722870        1.4262750
 H        4.1582040        2.1866460        3.4997190
 C        4.1413460        2.7228810        0.1256110
 H        4.8163790        2.8264830       -0.7236540
 C       -2.6413120        1.7757690       -1.0497630
 C       -3.0396610        2.1643750       -2.3769940
 C       -3.4001620        0.8190410       -0.3397850
 C       -4.2245190        1.5796660       -2.9007590
 C       -4.9687590        0.6251210       -2.1826140
 H       -4.5488890        1.8484900       -3.9044990
 C       -4.5470630        0.2262710       -0.9002690
 H       -5.1083140       -0.5132680       -0.3285550
 N       -2.3062830        3.1346060       -3.1331330
 C       -0.9233340        2.7987290       -3.5508700
 C       -3.0328420        3.9173420       -4.1493460
 H       -0.4336900        2.1743430       -2.8028690
 H       -0.3419950        3.7240020       -3.6959660
 H       -0.9134210        2.2333170       -4.5031050
 H       -2.4368790        4.8086670       -4.3999000
 H       -3.9998320        4.2532240       -3.7527910
 H       -3.2119870        3.3650610       -5.0948620
 H       -3.1160100        0.5689150        0.6801100
 C       -2.6239400        4.4361370        0.7055020
 C       -3.2287090        5.6743370        0.3774230
 C       -3.0400600        3.7697680        1.8835510
 C       -4.2135670        6.2447450        1.2115470
 H       -2.9339680        6.1947290       -0.5370250
 C       -4.6170140        5.5753410        2.3865410
 H       -4.6685980        7.1994010        0.9410790
 C       -4.0285050        4.3344900        2.7150370
 H       -5.3839070        6.0087150        3.0309530
 H       -4.3435050        3.8022590        3.6144780
 H       -2.6100390        2.8054980        2.1476850
 H       -5.8623590        0.1887760       -2.6323350
 N        1.5196250        2.2466720        3.4923150
 C        1.9935090        1.4278550        4.6186350
 C        0.2596710        2.9550200        3.7588090
 H        1.1240150        0.9595160        5.1021280
 H        2.5362950        2.0150350        5.3851860
 H        2.6466510        0.6195840        4.2664200
 H       -0.6000910        2.2701740        3.7421780
 H        0.0943500        3.7506950        3.0333510
 H        0.3110410        3.4278040        4.7559200
 H        2.3461750        2.9677860       -1.0529020
 H        5.7058440        2.3975420        1.6058930
