91
Mol_000157_2D_DFT last geometry from G09 out file
Ru        0.2211320        0.4233140        0.0515770
C       -1.1210960       -0.5015900       -0.7460400
Cl       -0.4079730        0.1382840        2.3757960
Cl        1.7604530        0.2528330       -1.8169140
H       -1.9833220       -0.1396970       -1.3089320
H       -0.9995710       -1.6056160       -0.6862650
C       -0.2344970        2.3138970       -0.1285610
N        0.7129550        3.2884630        0.1834340
N       -1.4083540        2.9510830       -0.4954720
C        1.8447190        3.0215130        1.0790250
C        0.2316660        4.6985600       -0.2515100
C        3.2103340        2.8895040        0.6612330
C        1.5332740        2.9205860        2.4591370
C        4.1760930        2.6568700        1.6750320
C        3.8699210        2.5511070        3.0501630
H        5.2171380        2.5485620        1.3768960
C        2.5171570        2.6907880        3.4321190
H        2.2253960        2.6023320        4.4796820
C       -1.3602340        4.4677950       -0.1515270
C       -2.4836310        2.3367140       -1.2573880
C       -3.6340870        1.7289440       -0.6685280
C       -2.3501710        2.3450740       -2.6698980
C       -4.6182510        1.2036320       -1.5502130
C       -4.5126770        1.2409820       -2.9572990
H       -5.4920480        0.7212120       -1.1092740
C       -3.3401370        1.8134130       -3.5104770
H       -3.1950210        1.8308580       -4.5922310
C       -5.6057670        0.6777890       -3.8501710
H       -6.3229610        0.0695770       -3.2822860
H       -5.1871650        0.0482070       -4.6501550
H       -6.1728950        1.4868480       -4.3403150
C        0.7675260        4.8961250       -1.7228900
C        0.6408890        6.2614550       -2.4529840
H        1.8337450        4.6677890       -1.6695340
H        0.3373490        4.1090960       -2.3576980
H        0.9062920        7.1150480       -1.8164680
H       -0.3576040        6.4517780       -2.8610710
H        1.3404850        6.2648930       -3.3044890
C        0.7229690        5.8321830        0.7002240
C        2.1953490        6.3108640        0.6499310
H        0.0862560        6.7041110        0.4926950
H        0.5132510        5.5364650        1.7335190
H        2.5185730        6.6196390       -0.3512730
H        2.8940360        5.5535360        1.0162710
H        2.2946850        7.1894070        1.3077850
C       -2.1549200        5.3539560       -1.1612700
C       -3.7030950        5.3960210       -1.1110830
H       -1.7954020        6.3822830       -1.0136370
H       -1.8675320        5.0740840       -2.1795600
H       -4.1609960        4.4319400       -1.3493870
H       -4.0518800        6.1192890       -1.8660070
H       -4.0954280        5.7279710       -0.1424900
C       -1.9661640        4.5858750        1.2996510
C       -2.2282670        5.9692010        1.9566540
H       -2.9333960        4.0796920        1.2380520
H       -1.3590480        3.9785670        1.9831580
H       -2.6727040        6.6978260        1.2670360
H       -1.3292220        6.4250920        2.3848170
H       -2.9420530        5.8314190        2.7848640
C        3.6753580        3.0437500       -0.7876630
C        4.9418290        2.2546220       -1.2079860
H        2.8597330        2.7450560       -1.4528220
H        3.8725440        4.1149620       -0.9753320
C        5.2363930        2.3921430       -2.7217670
H        5.8265360        2.6072560       -0.6517470
H        4.8053650        1.1904970       -0.9614450
C        6.5039770        1.6288360       -3.1657830
H        5.3481380        3.4614840       -2.9792980
H        4.3700410        2.0191220       -3.2923100
H        6.6807200        1.7461060       -4.2468840
H        6.4092210        0.5513010       -2.9577290
H        7.3999540        1.9952410       -2.6383310
H        0.4947790        2.9925750        2.7682440
C        4.9525230        2.2594640        4.0754990
H        5.9420500        2.5916420        3.7307490
H        5.0207770        1.1761930        4.2730570
H        4.7432210        2.7510000        5.0369600
C       -3.8263710        1.5064280        0.8304620
C       -5.1009830        2.1500650        1.4468960
H       -3.8869140        0.4181350        1.0014630
H       -2.9416920        1.8343910        1.3823050
C       -5.2487510        1.8392580        2.9562400
H       -5.0826590        3.2426540        1.2998600
H       -5.9985650        1.7875990        0.9190780
C       -6.5092900        2.4681310        3.5900450
H       -4.3523320        2.1944870        3.4932950
H       -5.2747540        0.7450140        3.1000750
H       -7.4277450        2.1016960        3.1035720
H       -6.4990080        3.5664850        3.4990130
H       -6.5784340        2.2225200        4.6614740
H       -1.4399370        2.7524450       -3.1067460
