85
Mol_000153_2D_DFT last geometry from G09 out file
 Ru        0.4033770       -0.2835680       -0.3077690
 C       -0.6460970       -1.0133880       -1.5989600
 Cl       -0.6669760       -0.8971310        1.7773290
 Cl        2.3721080       -0.0483380       -1.6965350
 H       -1.2865880       -0.5057990       -2.3270490
 H       -0.5479130       -2.1136040       -1.7154290
 C       -0.1981340        1.5684600       -0.2539230
 N        0.6282230        2.5487380        0.2764860
 N       -1.3868780        2.1777050       -0.6318820
 C        1.8582490        2.2591660        0.9853990
 C        0.0962880        3.9619440        0.0282150
 C        3.1260690        2.5255370        0.4137760
 C        1.7900820        1.7187800        2.2931390
 C        4.2981030        2.2728760        1.1432750
 C        4.2327570        1.7370330        2.4542420
 H        5.2742540        2.4648930        0.6999720
 C        2.9661330        1.4510280        3.0182030
 H        2.9023320        1.0250110        4.0168710
 C       -1.4786030        3.6215330       -0.0613680
 C       -2.5174990        1.4867480       -1.2133830
 C       -3.2292970        0.5049770       -0.4785320
 C       -2.9245990        1.7767790       -2.5390900
 C       -4.3311080       -0.1514790       -1.0514620
 C       -4.7528180        0.1553900       -2.3698340
 H       -4.8736120       -0.9071080       -0.4845500
 C       -4.0329060        1.1249810       -3.1103610
 H       -4.3333330        1.3552170       -4.1301870
 C       -5.9372170       -0.5689040       -2.9253610
 O       -6.2254800       -0.1762250       -4.2369920
 O       -6.6099710       -1.4288320       -2.3117890
 C       -7.3780830       -0.8410720       -4.8837280
 H       -7.4271100       -0.3995500       -5.8849400
 H       -7.2130830       -1.9257880       -4.9396670
 H       -8.3005450       -0.6436720       -4.3205660
 C        0.7341030        4.5386560       -1.2911450
 C        0.7662250        3.7052120       -2.5977060
 H        1.7787670        4.7736120       -1.0506510
 H        0.2611310        5.5114520       -1.4946850
 C        1.5592040        4.4331660       -3.7087500
 H       -0.2462090        3.5001690       -2.9686660
 H        1.2298960        2.7277840       -2.4139560
 H        2.6033580        4.6138980       -3.4065590
 H        1.5831650        3.8274110       -4.6276070
 H        1.1109320        5.4084140       -3.9604910
 C        0.4093460        4.9292720        1.2326700
 C        1.7417500        5.7251690        1.2844810
 H        0.3240930        4.3547350        2.1642860
 H       -0.3913380        5.6792120        1.2638430
 C        1.8573500        6.5212230        2.6057950
 H        1.7980350        6.4347910        0.4445710
 H        2.6094820        5.0598960        1.1983920
 H        1.8656300        5.8503530        3.4792710
 H        2.7893360        7.1068630        2.6271270
 H        1.0182370        7.2250560        2.7303820
 C       -2.2952370        4.5566000       -1.0033760
 C       -2.4924560        6.0341130       -0.5662190
 H       -3.2939810        4.1171800       -1.1244230
 H       -1.8441210        4.5594430       -2.0016650
 C       -3.4270020        6.7898400       -1.5394590
 H       -1.5285360        6.5623220       -0.5290850
 H       -2.9181910        6.0881950        0.4463360
 H       -4.4262600        6.3279620       -1.5773960
 H       -3.5547580        7.8376810       -1.2265570
 H       -3.0222130        6.7948900       -2.5640720
 C       -2.1409600        3.5238480        1.3714090
 C       -3.6797720        3.3509420        1.4851240
 H       -1.8989970        4.4345980        1.9315980
 H       -1.6562220        2.6961510        1.9087280
 C       -4.1129520        3.1784570        2.9603160
 H       -4.0319380        2.4864110        0.9134520
 H       -4.1953080        4.2306020        1.0704380
 H       -3.6671090        2.2750980        3.4055070
 H       -3.8081030        4.0405900        3.5757010
 H       -5.2071720        3.0836340        3.0380160
 H        3.1972390        2.8843450       -0.6084530
 H        0.8217490        1.4939140        2.7333230
 C        5.5157750        1.4866540        3.1811450
 O        5.3038480        0.9151330        4.4392340
 O        6.6581950        1.7503730        2.7395610
 C        6.5119530        0.6113180        5.2364270
 H        6.1286410        0.1739880        6.1646190
 H        7.1539660       -0.1019250        4.7016010
 H        7.0803250        1.5297130        5.4385510
 H       -2.9039240        0.2432240        0.5245110
 H       -2.3640960        2.4934230       -3.1337460
