79
M00000396_2D_DFT last geometry from G09 out file
 Ru       -1.2273800       -0.0684790        0.6890650
 C        0.0239160       -0.4848120        1.9384050
 Cl       -0.3725610       -1.2922800       -1.1997910
 Cl       -3.0680700        0.4867580        2.1766250
 H        0.8524710        0.1216770        2.3132430
 H       -0.0807180       -1.5015300        2.3747040
 C       -0.7874220        1.7502480        0.1513470
 N        0.0706970        2.7019880        0.7201600
 N       -1.4895380        2.3872050       -0.8809170
 C        0.0266510        3.9713350       -0.0977430
 C        1.3074540        2.4100010        1.4204650
 C        0.2381150        5.3399170        0.5641020
 C       -1.3749770        3.8762680       -0.7012290
 H        0.7754610        3.8597650       -0.9057580
 C        0.0429240        6.4194340       -0.5408420
 H        1.2460910        5.4257370        0.9931870
 H       -0.4832130        5.4877240        1.3798190
 C       -1.3017540        6.2804390       -1.3063270
 H        0.8774730        6.3538690       -1.2603570
 H        0.1027470        7.4192810       -0.0817630
 C       -1.5349770        4.8500540       -1.8747460
 H       -2.1341980        6.5419900       -0.6305530
 H       -1.3294920        7.0067790       -2.1343580
 H       -2.5400680        4.7807970       -2.3153330
 H       -0.8074730        4.6319060       -2.6667290
 H       -2.1168340        4.1577910        0.0718620
 C        1.5662710        2.8622010        2.7504730
 C        2.3274060        1.7507730        0.6908640
 C        2.8590600        2.6021730        3.2855740
 C        3.8784610        1.9310490        2.5742250
 H        3.0577590        2.9160260        4.3108540
 C        3.5907280        1.5067010        1.2538800
 H        4.3494280        0.9862780        0.6666000
 C       -2.5352910        1.8004560       -1.7015400
 C       -2.3677460        1.6185760       -3.1112690
 C       -3.7787820        1.4982840       -1.1001760
 C       -3.4658890        1.0817690       -3.8333860
 C       -4.6968480        0.7283620       -3.2344190
 H       -3.3356330        0.9100700       -4.9025400
 C       -4.8413630        0.9596330       -1.8474650
 H       -5.7797490        0.7212400       -1.3435950
 C        0.5766110        3.5809850        3.6191660
 C       -0.7502150        3.1109340        3.7979540
 C        0.9791340        4.7408850        4.3365570
 C       -1.6413750        3.7785100        4.6631830
 H       -1.0924670        2.2199210        3.2807390
 C       -1.2305950        4.9311970        5.3670110
 H       -2.6524620        3.3877080        4.7872000
 C        0.0869880        5.4107430        5.1980400
 H       -1.9226400        5.4453840        6.0365130
 H        0.4184100        6.3035820        5.7318780
 H        1.9885110        5.1338750        4.2043570
 H        2.1130820        1.4176000       -0.3241020
 C        5.2263000        1.6369380        3.2221890
 C        5.2761590        0.2545070        3.9299420
 H        5.4647450        2.4201840        3.9593070
 H        6.0193130        1.6710140        2.4577590
 H        6.2676060        0.0871940        4.3789900
 H        5.0817040       -0.5636010        3.2203150
 H        4.5243060        0.1909350        4.7307980
 C       -1.1387000        1.9835890       -3.8956990
 C        0.1533560        1.4955140       -3.5712420
 C       -1.2725570        2.8046100       -5.0491640
 C        1.2695730        1.8257200       -4.3683000
 H        0.2742130        0.8216040       -2.7283780
 C        1.1252200        2.6518820       -5.5038940
 H        2.2499190        1.4203790       -4.1096240
 C       -0.1559450        3.1392640       -5.8421960
 H        1.9913880        2.9033610       -6.1188160
 H       -0.2866600        3.7764170       -6.7191110
 H       -2.2547770        3.1977110       -5.3165780
 H       -3.9100350        1.6820220       -0.0370490
 C       -5.8120150        0.0884770       -4.0518460
 C       -5.7360400       -1.4636050       -4.0685700
 H       -5.7736950        0.4559750       -5.0899860
 H       -6.7905570        0.3904630       -3.6447940
 H       -6.5586850       -1.8834310       -4.6685340
 H       -5.8098110       -1.8755580       -3.0511220
 H       -4.7853490       -1.8097420       -4.5005140
