81
M00000397_2D_DFT last geometry from G09 out file
 Ru        0.6736360        0.7873400       -0.7991910
 C       -0.5873680       -0.0298010       -1.8184830
 Cl        0.3295360       -0.3271320        1.3071950
 Cl        2.1112370        1.6388350       -2.5547900
 H       -1.5804370        0.3130100       -2.1162940
 H       -0.2807050       -1.0327770       -2.1877200
 C       -0.1020450        2.4857730       -0.2609940
 N        0.5877470        3.3101180        0.6231450
 N       -1.2769720        3.1473530       -0.6014780
 C       -0.0330850        4.6540480        0.7306340
 C        1.9107020        3.1067360        1.1874500
 C       -1.4700330        4.4423530        0.1848260
 H        0.5363380        5.3742670        0.1190630
 H       -0.0248970        5.0020320        1.7683830
 C       -2.5321830        4.3453410        1.3273110
 C       -1.9882430        5.6599350       -0.6285260
 C       -2.8381620        5.8220160        1.7063160
 H       -2.1811870        3.7434280        2.1757400
 H       -3.4400150        3.8696960        0.9357740
 C       -2.4401230        6.6772970        0.4536070
 H       -3.8994440        5.9462240        1.9646660
 H       -2.2610320        6.1359140        2.5885070
 H       -1.6206380        7.3675680        0.7043250
 H       -3.2750030        7.2948350        0.0931790
 H       -2.8516410        5.3524630       -1.2336010
 H       -1.2305200        6.0676120       -1.3097800
 C        3.0349420        3.2983410        0.3491580
 C        2.0829040        2.8098910        2.5737040
 C        4.3397290        3.1603360        0.8496780
 C        4.5430900        2.8464320        2.2165200
 H        5.1793540        3.2967910        0.1705170
 C        3.4080470        2.6808600        3.0466570
 H        3.5831760        2.4292180        4.0921660
 C       -2.3820050        2.5957780       -1.3571100
 C       -2.5929880        2.9249950       -2.7307950
 C       -3.2981570        1.7537770       -0.6762650
 C       -3.7711410        2.4310270       -3.3408940
 C       -4.7062840        1.6111710       -2.6650790
 H       -3.9838280        2.6800610       -4.3795870
 C       -4.4441320        1.2576910       -1.3162800
 H       -5.1195750        0.6077490       -0.7626160
 H        2.8797390        3.5289860       -0.7013120
 C        0.9294640        2.6119000        3.5497240
 C        0.8120060        3.7269220        4.6294160
 H       -0.0163720        2.5227960        3.0037180
 H        1.0728100        1.6471840        4.0613410
 C       -0.3441340        3.4749280        5.6271620
 H        1.7593250        3.8001390        5.1880090
 H        0.6685620        4.7080380        4.1436290
 C       -0.4694640        4.5718090        6.7076510
 H       -0.1918530        2.4972000        6.1163960
 H       -1.2973770        3.3955600        5.0745910
 H       -0.6593300        5.5598050        6.2576130
 H        0.4524610        4.6493780        7.3055290
 H       -1.2985650        4.3544980        7.3992910
 C        5.9160060        2.6804400        2.8247300
 C        7.1466960        2.7554790        1.9224530
 O        6.0474750        2.4796420        4.0646550
 H        7.2261690        3.7417020        1.4385390
 H        8.0435920        2.5847000        2.5280960
 H        7.1013510        1.9992110        1.1237000
 C       -1.6163930        3.7547370       -3.5594460
 C       -1.0377130        3.0128270       -4.7991190
 H       -2.1312940        4.6653220       -3.9131890
 H       -0.7787120        4.0812960       -2.9328670
 C       -0.0683980        3.9001850       -5.6157140
 H       -0.5026410        2.1122540       -4.4643530
 H       -1.8579330        2.6777170       -5.4549080
 C        0.5243440        3.1743530       -6.8435920
 H        0.7556820        4.2318760       -4.9615070
 H       -0.5960000        4.8122020       -5.9493510
 H        1.2061460        3.8343200       -7.4029080
 H       -0.2670260        2.8458390       -7.5365800
 H        1.0961910        2.2848050       -6.5368720
 H       -3.0851380        1.4727070        0.3540320
 C       -5.9346590        1.1447280       -3.4127560
 C       -6.9257670        0.2137690       -2.7164810
 O       -6.1401220        1.5196040       -4.6006540
 H       -7.3494080        0.6837780       -1.8151510
 H       -7.7402090       -0.0222510       -3.4101830
 H       -6.4399040       -0.7231850       -2.4024720
