61
M00000398_2D_DFT last geometry from G09 out file
 Ru       -0.0594120        0.3068530        1.0866740
 C       -1.4387410       -0.6252680        0.3588110
 Cl       -1.0155680        1.0708960        3.1681360
 Cl        1.7765820       -0.6446980       -0.1400930
 H       -2.1339980       -0.3457890       -0.4364260
 H       -1.5554510       -1.6487890        0.7744380
 C       -0.1165790        2.0429330        0.2187220
 N        0.9561740        2.9364850        0.3139040
 N       -1.1348980        2.7120820       -0.4578480
 C        0.7018340        4.1625960       -0.5334970
 C        2.1376400        2.7606930        1.1165370
 C        1.2585100        5.5289110       -0.1156820
 C       -0.8275770        4.1969220       -0.5125920
 H        1.0727860        3.9298510       -1.5394610
 C        0.7456290        6.5519940       -1.1749560
 H        2.3575760        5.5312580       -0.1049330
 H        0.9089130        5.8069440        0.8914090
 C       -0.7929980        6.5052280       -1.3958020
 H        1.2578750        6.3526790       -2.1312470
 H        1.0379440        7.5684910       -0.8676850
 C       -1.3469140        5.0712980       -1.6590580
 H       -1.3028020        6.9194760       -0.5099010
 H       -1.0585700        7.1559900       -2.2437880
 H       -2.4447920        5.1003190       -1.6767540
 H       -0.9966770        4.6963120       -2.6338610
 H       -1.1927000        4.6207020        0.4337470
 C        1.9751570        2.8810630        2.5195570
 C        3.4446170        2.5018370        0.5754090
 C        3.0594130        2.7731550        3.4047770
 C        4.3360790        2.5425120        2.8624920
 H        2.9233240        2.8738590        4.4788830
 C        4.5274680        2.3944760        1.4786150
 H        5.5319190        2.1920830        1.1204010
 C       -2.2940920        2.1488710       -1.0844730
 C       -2.1112270        1.5099290       -2.3369720
 C       -3.6058040        2.2327910       -0.5193330
 C       -3.1924210        0.9756660       -3.0555420
 C       -4.4792640        1.0762880       -2.4914450
 H       -3.0519930        0.4983220       -4.0224650
 C       -4.6894260        1.6774140       -1.2373300
 H       -5.7025040        1.7220520       -0.8458620
 H        0.9795850        3.0637810        2.9144780
 C        3.7307210        2.2986360       -0.9022650
 C        4.8999110        1.4021310       -1.2991510
 O        3.0332390        2.8573030       -1.7883600
 H        5.8638160        1.9100710       -1.1321300
 H        4.9045030        0.4653390       -0.7272410
 H        4.8159890        1.1789050       -2.3684830
 N        5.5144540        2.4441770        3.7703450
 O        6.6719060        2.2555670        3.2399850
 O        5.3097860        2.5555720        5.0344780
 H       -1.1017390        1.4362680       -2.7393040
 C       -3.8964900        2.9313860        0.8043800
 C       -4.6896210        2.1777160        1.8590370
 O       -3.4680120        4.0955310        1.0081830
 H       -4.0128410        1.4581710        2.3486150
 H       -5.0527020        2.8786790        2.6196710
 H       -5.5289900        1.6043230        1.4444490
 N       -5.6497430        0.5255240       -3.2348920
 O       -6.8127260        0.6357970       -2.6962220
 O       -5.4300810       -0.0303660       -4.3728810
