79
M00000399_2D_DFT last geometry from G09 out file
 Ru        0.3607100        0.3597350       -0.2236850
 C       -1.1371740       -0.5386570       -0.7095730
 Cl        0.3109260       -0.0651960        2.1521360
 Cl        1.3581060        0.2585830       -2.4558650
 H       -2.0976810       -0.1714790       -1.0726570
 H       -1.0104120       -1.6434120       -0.6751550
 C       -0.0268140        2.2803910       -0.2276190
 N        0.9599430        3.1860970        0.1874240
 N       -1.1144440        2.9932510       -0.7109730
 C        0.6222950        4.6240040       -0.2168600
 C        1.9804590        2.8940180        1.2234980
 C       -0.8551270        4.5055360       -0.7816570
 H        0.6185610        5.2274460        0.7002690
 H       -0.8292010        4.7598090       -1.8479330
 C        1.6544250        3.2029820        2.5870230
 C        3.2781030        2.3545600        0.9140120
 C        2.6276350        3.0549700        3.5992130
 C        3.8933310        2.5791490        3.2623740
 H        2.3877350        3.2792770        4.6372850
 C        4.2224580        2.2126870        1.9602030
 H        5.2140360        1.8175120        1.7586000
 C       -2.2918630        2.3872940       -1.3329870
 C       -2.3886460        2.3613640       -2.7623880
 C       -3.3583260        1.8610940       -0.5240430
 C       -3.5760190        1.8881630       -3.3688290
 C       -4.6260150        1.4463280       -2.5620380
 H       -3.6731460        1.8584400       -4.4527870
 C       -4.5342930        1.4072470       -1.1696840
 H       -5.3719880        1.0210000       -0.5944130
 C       -1.2679680        2.7989260       -3.6884090
 H       -0.2853120        2.5397050       -3.2892330
 H       -1.2975460        3.8835300       -3.8806100
 H       -1.3671580        2.3008210       -4.6614630
 C       -3.3173790        1.7643840        1.0045390
 C       -3.8330530        0.4395320        1.6220510
 H       -3.9337030        2.5805550        1.4177910
 H       -2.2962230        1.9208550        1.3595060
 H       -3.2561460       -0.4248300        1.2702710
 H       -4.8964680        0.2563310        1.4124670
 H       -3.7181820        0.4860410        2.7153550
 C        1.7098970        5.2972800       -1.1953950
 C        3.0130740        5.5889860       -0.3865880
 C        2.0143130        4.4269630       -2.4470880
 C        1.2595450        6.6883990       -1.7403950
 H        3.7181770        6.1513770       -1.0166000
 H        3.5238730        4.6899830       -0.0433310
 H        2.7979120        6.2094300        0.4976880
 H        2.9243410        4.7987940       -2.9408530
 H        1.2039520        4.4911200       -3.1848480
 H        2.1675100        3.3748760       -2.2112900
 H        2.0499750        7.0597190       -2.4095150
 H        1.1299300        7.4347480       -0.9475690
 H        0.3396500        6.6396200       -2.3341360
 F       -5.8126720        0.9991420       -3.1742850
 C       -1.9944790        5.4676830       -0.1669470
 C       -2.3418330        5.2059710        1.3226480
 C       -1.5654000        6.9665870       -0.2416600
 C       -3.2972930        5.3725260       -1.0261250
 H       -1.5591440        5.5818810        1.9912930
 H       -2.5020790        4.1520930        1.5422490
 H       -3.2663790        5.7453020        1.5774150
 H       -2.3604810        7.5716480        0.2184960
 H       -1.4432160        7.3220950       -1.2713980
 H       -0.6438830        7.1726630        0.3143760
 H       -3.8458130        4.4400310       -0.8772050
 H       -3.0839840        5.4744410       -2.1006020
 H       -3.9717100        6.1965060       -0.7491940
 C        0.2849160        3.6572850        3.0497650
 H       -0.5068090        3.3113990        2.3878560
 H        0.2265800        4.7541610        3.1227710
 H        0.0779150        3.2555220        4.0500800
 C        3.7530200        1.9445990       -0.4807590
 C        4.6034230        0.6512990       -0.5507750
 H        4.3530500        2.7671430       -0.9059880
 H        2.9007760        1.8144000       -1.1466240
 H        4.7598140        0.3832150       -1.6055840
 H        4.0956520       -0.1936330       -0.0647540
 H        5.5951670        0.7654120       -0.0898240
 F        4.8631760        2.4431910        4.2742430
