79
Mol_000049_2D_DFT last geometry from G09 out file
Ru       -0.5412970        0.1262780        0.6368190
C       -1.6205940       -0.5912160       -0.6346240
Cl       -2.1452480        0.7989250        2.3242520
Cl        1.4887830       -1.0141390       -0.0120220
H       -1.9216820       -0.1616290       -1.5932630
H       -1.9856050       -1.6179060       -0.4157760
C       -0.2550450        1.9530260        0.0307620
N        0.7324030        2.7622130        0.5961450
N       -0.9848710        2.7282290       -0.8558330
C        0.7131600        4.1611320        0.0371600
C        1.9832450        2.3154200        1.2073380
C        0.6636130        5.2708990        1.1256230
C       -0.5192660        4.1588420       -0.9127060
H        1.6407560        4.2993650       -0.5402720
C       -0.7063810        5.3946110        1.7596190
H        1.4482580        5.0838600        1.8667790
H        0.9348640        6.2195820        0.6249780
C       -1.8026490        5.3481530        0.9649210
H       -0.7903420        5.4907740        2.8432850
C       -1.6198040        5.1977380       -0.5308180
H       -2.8116680        5.4073240        1.3776880
H       -2.5599620        4.9379140       -1.0322460
H       -1.2990070        6.1643070       -0.9628450
H       -0.2077280        4.3753400       -1.9447310
C        2.2172520        2.2136570        2.6110850
C        3.0601190        2.0755720        0.3164560
C        3.5207800        1.8697000        3.0413280
C        4.6104400        1.6311840        2.1555460
H        3.6821210        1.7751040        4.1107120
C        4.3430890        1.7440560        0.7563830
H        5.1133520        1.5446220        0.0160080
C       -2.1439060        2.3495800       -1.6343250
C       -2.0562300        2.1205080       -3.0401480
C       -3.4034340        2.2627870       -0.9956900
C       -3.2453560        1.8277290       -3.7457780
C       -4.5248640        1.7406680       -3.1176860
H       -3.1667800        1.6495130       -4.8144650
C       -4.5716150        1.9585680       -1.7050290
H       -5.5068070        1.8874380       -1.1555950
C        1.1312090        2.4264420        3.6815850
C        1.4501230        3.6210510        4.6272210
C        0.8960520        1.1420200        4.5286170
H        0.1891290        2.6499750        3.1666210
H        1.6214690        4.5548660        4.0739530
H        2.3466530        3.4284520        5.2352870
H        0.6091980        3.7854670        5.3191440
H        0.0302440        1.2835020        5.1922610
H        1.7696230        0.9041780        5.1544410
H        0.6864630        0.2729400        3.8929510
H        2.8716860        2.1202920       -0.7568000
N        5.8863390        1.2964000        2.6311990
C        6.1203280        1.1217170        4.0703530
C        6.9636730        0.9702920        1.6867590
H        5.5112670        0.3037230        4.4965320
H        5.8953700        2.0433180        4.6341500
H        7.1753410        0.8787940        4.2431310
H        6.7185690        0.0925780        1.0619510
H        7.8804330        0.7410700        2.2425270
H        7.1857330        1.8166520        1.0143310
C       -0.7169420        2.1510470       -3.8007350
C       -0.6763650        3.2744530       -4.8762800
C       -0.3594460        0.7737740       -4.4295360
H        0.0741390        2.3652190       -3.0690490
H       -1.3949280        3.0846290       -5.6874250
H        0.3262980        3.3354480       -5.3279180
H       -0.9169070        4.2582690       -4.4454260
H        0.6262600        0.8265270       -4.9177500
H       -1.0929310        0.4662780       -5.1895560
H       -0.3093540       -0.0125780       -3.6637730
H       -3.4529940        2.4062780        0.0819470
N       -5.6833880        1.4500370       -3.8509820
C       -6.9786670        1.3260750       -3.1675600
C       -5.6087010        1.2060380       -5.2970900
H       -7.2634900        2.2619120       -2.6563000
H       -6.9752710        0.5154580       -2.4175120
H       -7.7597430        1.0980050       -3.9019800
H       -6.6147560        1.0176200       -5.6892440
H       -4.9843150        0.3271350       -5.5395600
H       -5.1977950        2.0758170       -5.8388220
