65
Mol_000237_2D_DFT last geometry from G09 out file
 Ru       -0.2571010       -0.0648240        0.4083020
 C       -1.2924160       -0.6813730       -0.9534590
 Cl       -1.7176790       -0.2851710        2.3020150
 Cl        1.8743570       -0.4699980       -0.6280270
 H       -1.7710070       -0.1116860       -1.7542920
 H       -1.4075240       -1.7837050       -0.9956090
 C       -0.5017380        1.8311040        0.2538400
 N        0.3303380        2.7668140        0.9458490
 N       -1.4673270        2.5837030       -0.4013720
 C        1.5975540        2.4923420        1.6328130
 C       -0.0331660        4.1210350        0.6440870
 C        2.7483230        2.4188940        0.8131940
 C        1.6975230        2.3974220        3.0546700
 C        4.0194920        2.2284680        1.3701300
 C        4.1582340        2.1170860        2.7753750
 H        4.8802350        2.1629310        0.7079740
 C        2.9986390        2.2054130        3.5794760
 H        3.1375850        2.1247350        4.6552300
 C       -1.3578600        4.0332560       -0.1043480
 H       -2.1866770        4.3620360        0.5383350
 H       -1.3399490        4.6429220       -1.0126200
 C       -2.6772790        2.1536680       -1.0770070
 C       -2.8244310        2.3314270       -2.4838480
 C       -3.7389400        1.6472730       -0.2867720
 C       -4.0775330        1.9829970       -3.0468270
 C       -5.1493110        1.4748530       -2.2751010
 H       -4.2091940        2.1126130       -4.1187630
 C       -4.9612770        1.3036940       -0.8783380
 H       -5.7801660        0.9084000       -0.2794880
 C       -1.6946560        2.8571180       -3.3857270
 C       -2.0682920        4.2098030       -4.0584880
 C       -1.2609750        1.8124450       -4.4543690
 H       -0.8115340        3.0334500       -2.7557350
 H       -2.9038910        4.0956080       -4.7647420
 H       -1.2081210        4.6020930       -4.6215100
 H       -2.3626870        4.9698850       -3.3189560
 H       -0.4185890        2.2077320       -5.0416000
 H       -2.0745600        1.5770550       -5.1563360
 H       -0.9288340        0.8733210       -3.9892710
 H       -3.5858530        1.5086780        0.7815800
 F       -0.1218980        4.9573040        1.8005860
 F        0.9756930        4.7890610       -0.1611290
 C       -6.4899960        1.1098350       -2.8743580
 C       -6.7144330        1.2706190       -4.3770120
 O       -7.4162400        0.6760380       -2.1357530
 H       -6.0058620        0.6567960       -4.9548710
 H       -7.7354850        0.9557430       -4.6187920
 H       -6.5805060        2.3174390       -4.6919030
 H        2.6335280        2.4956980       -0.2644300
 C        0.5157630        2.5224130        4.0289240
 C        0.5971350        3.8476830        4.8439230
 C        0.4195950        1.3076450        4.9955850
 H       -0.4125180        2.5463170        3.4430700
 H        1.4801580        3.8578170        5.4997170
 H       -0.2944640        3.9461200        5.4821870
 H        0.6476690        4.7268960        4.1897750
 H       -0.4969400        1.3889460        5.5990160
 H        1.2713810        1.2704910        5.6898730
 H        0.3743630        0.3578280        4.4491110
 C        5.4943480        1.9096400        3.4532550
 C        6.7497610        1.7554650        2.5971170
 O        5.5721500        1.8608580        4.7122310
 H        6.9242370        2.6510280        1.9804330
 H        7.6128820        1.6027850        3.2544220
 H        6.6617670        0.8963170        1.9140590
