83
Mol_000234_2D_DFT last geometry from G09 out file
 Ru        0.0626190       -0.0419240        0.5771400
 C       -1.4481460       -0.8566910       -0.0189170
 Cl       -0.3953970       -0.0345450        2.9445070
 Cl        1.5750950       -0.8033010       -1.1364060
 H       -2.2980480       -0.4362600       -0.5591650
 H       -1.4910670       -1.9469240        0.1902950
 C       -0.1605070        1.8518910        0.1205040
 N        0.8407760        2.7819850        0.4082020
 N       -1.2194550        2.5549690       -0.4434810
 C        0.3780290        4.2207330        0.2225610
 C        2.0407090        2.4559050        1.1571890
 C       -0.8999330        4.0372430       -0.6456120
 H        0.0773550        4.5709790        1.2168430
 H       -0.6384160        4.1495880       -1.7055980
 C        2.0432650        2.5635260        2.5858220
 C        3.2592250        2.0462760        0.5239570
 C        3.1734290        2.1617920        3.3208630
 C        4.3498770        1.6453310        2.7059910
 H        3.1161060        2.2376890        4.4032560
 C        4.3734530        1.6417080        1.2828390
 H        5.2642810        1.3237070        0.7534780
 C       -2.3331220        1.9824140       -1.1666810
 C       -2.1754340        1.6464890       -2.5514970
 C       -3.6185550        1.7784390       -0.5803360
 C       -3.2749450        1.1732190       -3.2918230
 C       -4.5736240        1.0011750       -2.7257730
 H       -3.1023950        0.9214560       -4.3346930
 C       -4.7067300        1.3034310       -1.3422900
 H       -5.6561880        1.1540900       -0.8397920
 C       -0.8320020        1.7486150       -3.2566470
 H       -0.5176910        2.7925130       -3.4023570
 H       -0.8847570        1.2856080       -4.2502290
 H       -0.0392740        1.2413330       -2.6968910
 C       -3.9752490        2.0178610        0.8751310
 F       -4.8765700        3.1305950        1.0149330
 F       -2.9244360        2.2695410        1.7569490
 F       -4.6862560        0.9136110        1.4267880
 C        1.5060880        5.1998790       -0.2773290
 C        1.4530070        6.5568210        0.4775180
 C        1.6006510        5.4383160       -1.8055210
 H        2.4519670        4.7335870        0.0294750
 H        0.5518350        7.1381660        0.2374740
 H        2.3233040        7.1711550        0.2009790
 H        1.4845110        6.4150670        1.5689000
 H        2.5401780        5.9644640       -2.0304210
 H        0.7787650        6.0644500       -2.1785300
 H        1.6153800        4.5021600       -2.3742570
 N       -5.6546390        0.5466810       -3.4814540
 C       -5.4769280        0.2061060       -4.9013900
 C       -6.9710950        0.3517260       -2.8533040
 H       -6.4364330       -0.1141610       -5.3222350
 H       -4.7563930       -0.6184860       -5.0420320
 H       -5.1270550        1.0726430       -5.4878290
 H       -7.6897920        0.0144780       -3.6083200
 H       -7.3581840        1.2889720       -2.4190410
 H       -6.9395070       -0.4104340       -2.0552360
 C       -2.1219500        4.9927350       -0.3761150
 C       -2.1529330        6.1803930       -1.3768950
 C       -2.2926130        5.5057850        1.0760520
 H       -3.0147650        4.3972140       -0.6105890
 H       -2.1210500        5.8319860       -2.4209850
 H       -1.3200220        6.8802320       -1.2262330
 H       -3.0864030        6.7485830       -1.2469790
 H       -3.2811140        5.9777410        1.1790740
 H       -1.5416150        6.2638800        1.3387640
 H       -2.2432730        4.6966800        1.8134630
 C        0.8709930        3.1392960        3.3654640
 H       -0.0948220        2.8796290        2.9265270
 H        0.9498050        4.2379480        3.4226940
 H        0.8671080        2.7559750        4.3925990
 C        3.5592210        2.1576060       -0.9600730
 F        4.3037050        3.3752300       -1.2149390
 F        2.4732410        2.2162100       -1.8384190
 F        4.4073650        1.1335290       -1.4379960
 N        5.4346240        1.1873610        3.4527670
 C        6.6320020        0.6590430        2.7794280
 C        5.3739280        1.1845600        4.9224600
 H        7.1296080        1.4271250        2.1625030
 H        6.3901880       -0.2002960        2.1312090
 H        7.3526680        0.3184630        3.5311250
 H        5.2721760        2.2043980        5.3327050
 H        6.2979140        0.7547200        5.3248310
 H        4.5304330        0.5782120        5.2942520
