67
M00000075_2D_DFT last geometry from G09 out file
Ru        0.2785030        0.0886380       -0.2361250
C       -1.2381130       -0.7238660       -0.8086690
Cl        0.0917550       -0.3870560        2.1253420
Cl        1.4264200        0.0325880       -2.3740370
H       -2.1874160       -0.3053200       -1.1454100
H       -1.1459100       -1.8318250       -0.8466150
C       -0.0149070        2.0183630       -0.1902260
N        1.0123020        2.8554260        0.2686510
N       -1.0481850        2.8189870       -0.6476720
C        0.7582410        4.3214300       -0.0676000
C        1.9414520        2.4759870        1.3337520
C       -0.7349410        4.3162280       -0.5779790
H        0.8246590        4.8847450        0.8709450
H       -0.7482350        4.6776060       -1.6128810
C        1.5746330        2.7871000        2.6710440
C        3.2031700        1.8310810        1.1506610
C        2.3548390        2.5243620        3.7977970
C        3.5945780        1.8875600        3.5988170
H        1.9817430        2.7854620        4.7867030
C        3.9945740        1.5488900        2.2969680
H        4.9522030        1.0485350        2.1459680
C       -2.1775680        2.3343480       -1.4133940
C       -2.1686190        2.4810510       -2.8230550
C       -3.3385560        1.7474670       -0.8201860
C       -3.2237410        2.1041150       -3.6619150
C       -4.3676200        1.5415790       -3.0643960
H       -3.1341930        2.2426680       -4.7381610
C       -4.4110880        1.3652970       -1.6682740
H       -5.2954620        0.9164080       -1.2141940
F       -1.0381340        3.0485510       -3.4358830
C       -3.4848350        1.4975140        0.6719760
H       -4.0381690        2.3179610        1.1535830
H       -2.5251520        1.3879280        1.1821410
H       -4.0608430        0.5781270        0.8469310
C        1.8415850        4.9505340       -1.0664660
C        3.2177480        5.0525490       -0.3390100
C        1.9905590        4.1418840       -2.3850380
C        1.4657300        6.4120320       -1.4621010
H        3.1267400        5.5769550        0.6253470
H        3.9193790        5.6281030       -0.9610410
H        3.6725890        4.0791720       -0.1526270
H        1.1131750        4.2521760       -3.0335190
H        2.1341300        3.0727520       -2.2151640
H        2.8605590        4.5151360       -2.9461470
H        2.2408330        6.7958230       -2.1418160
H        1.4272500        7.0852730       -0.5956970
H        0.5116810        6.4767760       -1.9988350
H       -5.2103910        1.2349960       -3.6846820
C       -1.8056190        5.2166440        0.2079760
C       -2.0919880        4.7462000        1.6605440
C       -1.3141070        6.6952000        0.3016690
C       -3.1426200        5.2747170       -0.5996400
H       -1.2831610        5.0276020        2.3428960
H       -2.2215450        3.6654920        1.7366770
H       -3.0115540        5.2288600        2.0253080
H       -2.0596780        7.2708870        0.8699220
H       -1.2153560        7.1690250       -0.6832020
H       -0.3606650        6.7928450        0.8341250
H       -2.9685790        5.5263900       -1.6572310
H       -3.7856840        6.0616860       -0.1781910
H       -3.7085480        4.3407380       -0.5627070
F        0.3256360        3.3921730        2.8967430
C        3.7840640        1.4152840       -0.1886310
H        4.7995670        1.8242980       -0.3039310
H        3.1849500        1.7274050       -1.0402870
H        3.8720590        0.3205380       -0.2454720
H        4.2316710        1.6529190        4.4520220
