79
M00000072_2D_DFT last geometry from G09 out file
Ru       -0.1461700        0.0273930        0.6900430
C       -1.3517460       -0.7247750       -0.4427840
Cl       -1.5066000        0.0490520        2.6849550
Cl        1.8524030       -0.7638630       -0.4055010
H       -1.9281360       -0.2549150       -1.2418290
H       -1.4969480       -1.8159920       -0.2953310
C       -0.1793430        1.9088430        0.2356110
N        0.7200770        2.8278840        0.7844670
N       -1.0450650        2.6358750       -0.6168470
C        0.5378900        4.2337000        0.2425820
C        1.9934590        2.4124740        1.3972020
C       -0.6785660        4.0190090       -0.6949840
H        1.3870700        4.4269390       -0.4245930
C        3.1484440        2.3198270        0.5636740
C        2.0640680        2.1578970        2.7985450
C        4.3919530        1.9559480        1.1507330
C        4.4646500        1.6248710        2.5343040
C        3.3111560        1.7479220        3.3599180
C       -2.2167310        2.1753540       -1.3645920
C       -3.4925840        2.2098910       -0.7341290
C       -2.0471570        1.7826850       -2.7240430
C       -4.6351290        1.8273890       -1.4971950
C       -4.4880990        1.4231840       -2.8563570
C       -3.2044950        1.4298040       -3.4771060
C        0.5045240        5.4976250        1.2077540
C       -0.6572600        5.5089900        2.2391460
C        1.8627220        5.6165520        1.9654800
C        0.4004900        6.7616110        0.2895180
H       -0.5362850        6.3770470        2.9044940
H       -0.6576190        4.6132070        2.8682490
H       -1.6371730        5.5939130        1.7584470
H        1.9006890        6.5927220        2.4709570
H        2.7210810        5.5661220        1.2794170
H        1.9937420        4.8437400        2.7264390
H        0.4557530        7.6621570        0.9182470
H       -0.5382560        6.8033980       -0.2717010
H        1.2332560        6.8084790       -0.4291570
F       -0.3136530        4.4189840       -2.0519240
F       -1.8240530        4.8533880       -0.4585000
C        3.0884790        2.5490310       -0.9406770
H        2.0693480        2.5303870       -1.3286540
H        3.6306260        1.7562590       -1.4693520
H        3.5484530        3.5090830       -1.2302980
C        0.8610020        2.3439330        3.7088650
H        0.6507090        1.4387140        4.2906540
H       -0.0449810        2.5654470        3.1482680
H        1.0334010        3.1637560        4.4248630
C        5.6425550        1.8821130        0.2813130
H        6.5545680        2.0704430        0.8592760
H        5.6202170        2.6169210       -0.5322230
H        5.7479700        0.8870300       -0.1850620
C        5.7817210        1.1243890        3.1199060
H        6.2971080        0.4505040        2.4232370
H        5.6343030        0.5694410        4.0514440
H        6.4740150        1.9556240        3.3402240
C        3.4181040        1.4490830        4.8531200
H        2.5595140        1.8211420        5.4179340
H        4.3166680        1.9042630        5.2929740
H        3.4789390        0.3633030        5.0396770
C       -3.6537920        2.6212070        0.7215140
H       -4.2186170        3.5626240        0.8044910
H       -2.6962760        2.7669090        1.2204820
H       -4.1942800        1.8529470        1.2909600
C       -0.6681490        1.6814930       -3.3615880
H       -0.4986380        2.4932290       -4.0850220
H       -0.5519670        0.7287350       -3.8970590
H        0.1309300        1.7338470       -2.6211400
C       -6.0237350        1.8587060       -0.8659150
H       -6.7671360        2.2899410       -1.5504350
H       -6.0489310        2.4515880        0.0525410
H       -6.3724280        0.8445960       -0.6049950
C       -5.7112150        0.9764320       -3.6514280
H       -5.4535490        0.2296070       -4.4114340
H       -6.1842050        1.8249300       -4.1763420
H       -6.4763080        0.5295830       -3.0065610
C       -3.0706270        1.0606360       -4.9516310
H       -3.0588430       -0.0329850       -5.1026950
H       -2.1502450        1.4568810       -5.3919240
H       -3.9064660        1.4589900       -5.5415160
