63
Mol_000186_2D_DFT last geometry from G09 out file
 Ru       -0.1666540        0.4245660        0.8249350
 C       -1.1185110       -0.4913770       -0.4575800
 Cl       -1.9811190        0.3519580        2.4983800
 Cl        1.9674540       -0.1126080       -0.2892940
 H       -1.5705370       -0.1504530       -1.3962140
 H       -1.2273340       -1.5845240       -0.2854990
 C       -0.3140480        2.2326500        0.2087370
 N        0.6597420        3.2173770        0.4974520
 N       -1.3306850        2.8883730       -0.4868560
 C        0.3079770        4.5129930       -0.1414580
 C        1.9805530        3.0352980        1.0166390
 C       -1.2141530        4.4004320       -0.3537730
 H        0.8213140        4.6219020       -1.1107930
 H        0.5909960        5.3477890        0.5096460
 C       -2.0369060        4.9589080        0.8552200
 C       -1.7325300        5.2656070       -1.5285790
 C       -2.1648250        6.4870800        0.5928290
 H       -1.5674430        4.7238520        1.8197690
 H       -3.0285400        4.4882430        0.8520100
 C       -1.8398680        6.6911480       -0.9264700
 H       -3.1772710        6.8385620        0.8381860
 H       -1.4704100        7.0638770        1.2214680
 H       -0.8903370        7.2351370       -1.0473770
 H       -2.6109990        7.2836520       -1.4392760
 H       -2.7294380        4.9125070       -1.8235830
 H       -1.0883840        5.2147500       -2.4141670
 C        3.0325500        3.8177680        0.4775780
 C        2.2875360        2.1179270        2.0679240
 C        4.3614580        3.6974140        0.9223750
 C        4.6396220        2.7672320        1.9320200
 H        5.1501120        4.2990350        0.4748230
 C        3.6226140        1.9914670        2.5067510
 H        3.8749350        1.2903850        3.2957960
 C       -2.5147730        2.3039120       -1.0746020
 C       -2.6595690        2.1737860       -2.5067490
 C       -3.5845330        1.9488620       -0.2251220
 C       -3.9288050        1.7336720       -2.9926510
 C       -4.9718270        1.4229500       -2.1110430
 H       -4.0839570        1.5996790       -4.0587280
 C       -4.8254240        1.5015610       -0.7180600
 H       -5.6327040        1.2342690       -0.0403070
 H        2.8348170        4.5146930       -0.3325650
 N        1.2068920        1.3595020        2.6986830
 C        1.6309860        0.1011410        3.3972820
 C        0.4707160        2.2502990        3.6711670
 H        0.7224770       -0.4426740        3.6823700
 H        2.2117350        0.3004520        4.3158050
 H        2.2241100       -0.5163840        2.7141940
 H       -0.3817490        1.7019590        4.0791690
 H        0.0968380        3.1378920        3.1528780
 H        1.1466020        2.5668360        4.4851600
 Cl        6.3472990        2.5682890        2.5278610
 N       -1.6395880        2.5046690       -3.4322090
 C       -0.2795680        1.9286670       -3.3285600
 C       -2.0125540        2.8354400       -4.8181630
 H       -0.0304890        1.6525960       -2.3068950
 H        0.4668300        2.6571180       -3.6826930
 H       -0.1860730        1.0197610       -3.9541950
 H       -1.1812430        3.3868460       -5.2818510
 H       -2.8997050        3.4815410       -4.8388390
 H       -2.2098130        1.9446180       -5.4482470
 H       -3.4325680        2.0067410        0.8489670
 Cl       -6.5604310        0.8631830       -2.8101770
