67
Mol_000192_2D_DFT last geometry from G09 out file
 Ru        0.2649170        0.0529790        0.6888990
 C       -1.1843310       -0.8190330        0.0266420
 Cl       -0.4291110        0.4033690        2.9802570
 Cl        1.8773090       -0.6825970       -0.9470420
 H       -1.9805760       -0.4473290       -0.6220570
 H       -1.2333330       -1.8951140        0.3015220
 C        0.0352120        1.8940560        0.1109770
 N        1.0733000        2.8179350        0.2443240
 N       -1.0773860        2.5748390       -0.3653300
 C        0.5823630        4.2351180        0.0625710
 C        2.2957610        2.6052060        1.0157630
 C       -0.7703240        4.0276680       -0.6511060
 H        0.4011210        4.6505430        1.0644450
 H       -0.6283470        4.1358810       -1.7350620
 C        2.1849980        2.6435260        2.4278340
 C        3.5675970        2.4554360        0.3829500
 C        3.3222820        2.5086580        3.2445810
 C        4.5852420        2.3478410        2.6401860
 H        3.2168630        2.5176980        4.3301020
 C        4.6939170        2.3237270        1.2362280
 H        5.6788890        2.1935820        0.7907290
 C       -2.2183130        2.0068980       -1.0612280
 C       -2.0343390        1.6596980       -2.4240870
 C       -3.4939060        1.8829380       -0.4399950
 C       -3.1096960        1.1902840       -3.1992570
 C       -4.3875880        1.0800000       -2.6074780
 H       -2.9528860        0.9136090       -4.2427670
 C       -4.5639380        1.4201040       -1.2531820
 H       -5.5554330        1.3239880       -0.8087060
 H       -1.0382060        1.7433590       -2.8602920
 C       -3.7480510        2.2161290        1.0283560
 C       -4.3393900        1.0497700        1.8627540
 H       -4.4477140        3.0686040        1.0780520
 H       -2.8165800        2.5424780        1.5014750
 H       -3.6488490        0.1973620        1.8947890
 H       -5.3066970        0.7014250        1.4707360
 H       -4.4993160        1.3831460        2.8994830
 C        1.5238300        5.1772090       -0.6884070
 C        2.3818370        6.0442240        0.0280950
 N        1.4732670        5.1757750       -2.0544590
 C        3.2239650        6.9233480       -0.6831380
 H        2.3920420        6.0260230        1.1175890
 C        3.1809840        6.9182910       -2.0930710
 H        3.8952020        7.5973010       -0.1492010
 C        2.2877540        6.0296030       -2.7304610
 H        3.8121860        7.5831720       -2.6831290
 H        2.2148930        5.9955660       -3.8194180
 H       -5.2367930        0.7274520       -3.1956470
 C       -1.8476420        5.0145960       -0.1993070
 C       -2.7459100        5.5727480       -1.1383160
 N       -1.8824750        5.3510690        1.1248580
 C       -3.7171340        6.4957570       -0.6980800
 H       -2.6855530        5.2890090       -2.1888150
 C       -3.7616210        6.8392000        0.6692500
 H       -4.4197510        6.9376340       -1.4059330
 C       -2.8221530        6.2423130        1.5387950
 H       -4.4939730        7.5498800        1.0530390
 H       -2.8143430        6.4825860        2.6039180
 H        1.2017890        2.7492220        2.8806890
 C        3.7424530        2.4752310       -1.1352360
 C        4.8673760        1.5792890       -1.7039740
 H        3.9413640        3.5149570       -1.4463030
 H        2.7954050        2.1902620       -1.6052290
 H        4.7320110        0.5345300       -1.3963470
 H        5.8710540        1.9094120       -1.3957260
 H        4.8389220        1.6125840       -2.8043000
 H        5.4801540        2.2368700        3.2554960
