91
Mol_000188_2D_DFT last geometry from G09 out file
 Ru       -0.0514190        0.0261240        0.3044920
 C       -1.4145010       -0.7601110       -0.5990950
 Cl       -0.9472340       -0.1034490        2.5403600
 Cl        1.6871760       -0.2848720       -1.3768010
 H       -2.2164420       -0.3125970       -1.1891350
 H       -1.4146390       -1.8703520       -0.5256090
 C       -0.2583160        1.9497890        0.0472740
 N        0.6166760        2.8220280        0.6859470
 N       -1.0912050        2.7033950       -0.7655720
 C        0.5025040        4.2339030        0.1856680
 C        1.6160270        2.4597110        1.6877150
 C       -0.7355790        4.1767100       -0.7692380
 H        0.2698120        4.8772240        1.0440220
 H       -0.4209960        4.4270670       -1.7910430
 C        1.4993060        2.8408680        3.0604180
 C        2.7657540        1.7524880        1.2573110
 C        2.5620300        2.4791100        3.9262110
 C        3.7024640        1.7533370        3.5170740
 H        2.4858410        2.7599500        4.9770420
 C        3.7845090        1.3895540        2.1525120
 H        4.6378640        0.8265150        1.7737080
 C       -2.2104120        2.2046780       -1.5453400
 C       -2.1553040        2.0309510       -2.9591010
 C       -3.4116480        1.9157250       -0.8500340
 C       -3.3505420        1.6219630       -3.6095910
 C       -4.5618960        1.3550050       -2.9353040
 H       -3.3282600        1.4928900       -4.6922870
 C       -4.5673380        1.4943090       -1.5240570
 H       -5.4654840        1.2746700       -0.9465190
 C       -0.8763490        2.2238760       -3.7910770
 C       -0.9973890        3.4053340       -4.7969210
 C       -0.4671310        0.9200550       -4.5348170
 H       -0.0570950        2.4519410       -3.0991570
 H       -1.7593820        3.2053460       -5.5650770
 H       -0.0380560        3.5593920       -5.3147440
 H       -1.2698910        4.3459720       -4.2974530
 H       -0.3283270        0.0901040       -3.8314550
 H        0.4892140        1.0741830       -5.0575920
 H       -1.2147190        0.6240210       -5.2856260
 H       -3.4168630        1.9958960        0.2354040
 C        1.8377080        4.7869030       -0.4256750
 C        1.7636460        6.3249070       -0.6143040
 C        2.3139340        4.0931190       -1.7249090
 H        2.6037790        4.5980830        0.3446410
 H        1.0400880        6.6115680       -1.3929100
 H        2.7455470        6.7136280       -0.9234130
 H        1.4829840        6.8398790        0.3181230
 H        3.3514140        4.3893760       -1.9426010
 H        1.7085810        4.3859910       -2.5956480
 H        2.2920180        2.9996830       -1.6464630
 C       -5.8081510        0.9134890       -3.7145420
 C       -6.9701950        1.9380600       -3.5843660
 C       -6.2710880       -0.5162440       -3.3166570
 H       -5.5298560        0.8760360       -4.7814400
 H       -7.3264360        2.0168330       -2.5463100
 H       -7.8236930        1.6307720       -4.2084900
 H       -6.6536590        2.9407000       -3.9093530
 H       -6.5947050       -0.5607750       -2.2660030
 H       -5.4599310       -1.2476450       -3.4506710
 H       -7.1210000       -0.8315190       -3.9416960
 C       -1.8423860        5.2355460       -0.3957520
 C       -2.6279060        4.9839440        0.9139270
 C       -2.8047670        5.5724890       -1.5646750
 H       -1.2444910        6.1504320       -0.2316040
 H       -3.3590600        4.1755720        0.8055920
 H       -3.1835670        5.8939340        1.1882880
 H       -1.9728720        4.7354480        1.7572640
 H       -3.4291340        6.4377870       -1.2930040
 H       -3.4762110        4.7412500       -1.8084630
 H       -2.2511470        5.8422360       -2.4771080
 C        0.3036820        3.6155680        3.6381330
 C        0.6923270        5.0811330        3.9981210
 C       -0.3374790        2.9151200        4.8689780
 H       -0.4732560        3.6446660        2.8650980
 H        1.4293700        5.1031030        4.8144920
 H       -0.1942990        5.6414910        4.3342290
 H        1.1327810        5.6179360        3.1447460
 H        0.3336490        2.9150440        5.7403190
 H       -0.6019270        1.8780160        4.6339620
 H       -1.2560910        3.4478470        5.1620060
 H        2.8539720        1.4748170        0.2115640
 C        4.7906450        1.3755070        4.5304420
 C        6.1625990        2.0203690        4.1874070
 C        4.9154830       -0.1652380        4.6960400
 H        4.4806890        1.7799330        5.5091920
 H        6.5584950        1.6473000        3.2309270
 H        6.9023790        1.7870440        4.9691060
 H        6.0788810        3.1153170        4.1129580
 H        5.2491100       -0.6464970        3.7646760
 H        3.9499730       -0.6117780        4.9766770
 H        5.6477110       -0.4089840        5.4817360
