53
Mol_000191_2D_DFT last geometry from G09 out file
 Ru       -0.0412950        0.1006890        0.7086690
 C       -1.0337110       -0.7464330       -0.5572330
 Cl       -1.5577170        0.3853660        2.5701940
 Cl        2.1429640       -0.4280620       -0.1424120
 H       -1.4161600       -0.3449740       -1.5016010
 H       -1.2097270       -1.8265980       -0.3748310
 C       -0.1015170        1.9144210        0.0629940
 N        0.8513650        2.8701120        0.4501170
 N       -0.9496510        2.5407410       -0.8597990
 C        0.8132430        4.0459610       -0.4774480
 C        1.9007720        2.6751980        1.4095790
 C        1.1937220        5.4512120        0.0125270
 C       -0.6624560        4.0219400       -0.8888760
 H        1.4357840        3.7981870       -1.3580300
 C        0.9593530        6.4253830       -1.1810250
 H        2.2428290        5.5037750        0.3327170
 H        0.5727150        5.7361130        0.8763020
 C       -0.4589860        6.3171560       -1.8068430
 H        1.7159670        6.2232360       -1.9585620
 H        1.1301920        7.4589970       -0.8417540
 C       -0.8765940        4.8577420       -2.1579660
 H       -1.1993910        6.7392730       -1.1062470
 H       -0.5040840        6.9348840       -2.7174530
 H       -1.9263310        4.8428060       -2.4822100
 H       -0.2630450        4.4682910       -2.9857840
 H       -1.2695370        4.4727830       -0.0795530
 C        1.5842650        2.2929450        2.7348740
 C        3.2522720        2.9095510        1.0570640
 C        2.6065020        2.1229200        3.6856080
 C        3.9522450        2.3562710        3.3298610
 H        2.3484720        1.8168250        4.6983280
 C        4.2693940        2.7568100        2.0110350
 H        5.3070190        2.9183940        1.7222780
 C       -2.2584780        2.0973440       -1.2752420
 C       -2.5342950        1.9592550       -2.6561130
 C       -3.2872630        1.8732230       -0.3298220
 C       -3.8239590        1.6064690       -3.0915340
 C       -4.8480970        1.3784040       -2.1446890
 H       -4.0241710        1.4932160       -4.1557730
 C       -4.5750430        1.5098160       -0.7643190
 H       -5.3558750        1.3242870       -0.0281020
 H        0.5478600        2.1402090        3.0265970
 H        3.5166740        3.1686120        0.0335670
 C        5.0418520        2.2410710        4.3607660
 F        6.2768910        1.8171830        3.8152180
 F        4.7287280        1.3406390        5.4026240
 F        5.3183260        3.4891380        5.0011650
 H       -1.7367550        2.1100860       -3.3821480
 H       -3.0772660        1.9537270        0.7338310
 C       -6.2434610        1.0513860       -2.6095450
 F       -6.9481380        0.2248610       -1.7060390
 F       -6.2671150        0.3951330       -3.8623770
 F       -7.0468860        2.2193250       -2.7714840
