73
Mol_000190_2D_DFT last geometry from G09 out file
 Ru        0.0771540       -0.0095550       -0.0522600
 C       -1.2676460       -0.7490310       -1.0258370
 Cl       -0.7269020       -0.4389270        2.1664710
 Cl        1.8260680       -0.0800880       -1.7173780
 H       -2.1044340       -0.2744340       -1.5410520
 H       -1.2108990       -1.8567660       -1.0881170
 C       -0.2412230        1.8868560       -0.1151520
 N        0.5705020        2.7660310        0.6230630
 N       -1.1216950        2.6813550       -0.8542610
 C        0.3822600        4.1758830        0.2325380
 C        1.5670050        2.3889480        1.6259760
 C       -0.9089270        4.1322910       -0.6316910
 H        0.2747940        4.8238930        1.1070310
 H       -0.7811490        4.6563390       -1.5855820
 C        1.3730470        2.6739690        3.0122830
 C        2.7555060        1.7725550        1.1674160
 C        2.4197680        2.3051760        3.8876780
 C        3.6015750        1.6711270        3.4438040
 H        2.3236340        2.4983320        4.9537900
 C        3.7656050        1.3984730        2.0663290
 H        4.6704270        0.9168190        1.7041170
 C       -2.2126950        2.2513120       -1.7174390
 C       -2.1006880        2.2867290       -3.1379820
 C       -3.4206040        1.8636220       -1.0864460
 C       -3.2563560        1.9302800       -3.8756700
 C       -4.4665430        1.5464490       -3.2574200
 H       -3.2284940        1.9429980       -4.9633010
 C       -4.5445990        1.5059940       -1.8435750
 H       -5.4683550        1.2080940       -1.3539140
 C       -0.8164740        2.6844230       -3.8806440
 C       -0.9957240        4.0227500       -4.6565720
 C       -0.3206910        1.5593460       -4.8329530
 H       -0.0211000        2.8286670       -3.1386010
 H       -1.7263410        3.9197530       -5.4718620
 H       -0.0372670        4.3288540       -5.1016220
 H       -1.3431100        4.8405980       -4.0063140
 H       -1.0360480        1.3619750       -5.6443950
 H       -0.1448530        0.6246030       -4.2852640
 H        0.6329660        1.8588830       -5.2924290
 H       -3.4651510        1.8374890        0.0010130
 C        1.5825680        4.7745860       -0.5636170
 F        1.9985950        3.9744000       -1.6431780
 F        1.2276680        6.0377180       -1.1032350
 F        2.6993380        4.9898150        0.2584340
 C       -5.6260090        1.1942710       -4.1398680
 O       -6.7500040        0.8250450       -3.4008910
 O       -5.6098830        1.2211700       -5.3917490
 C       -7.9591640        0.4592230       -4.1729630
 H       -8.7049820        0.2022220       -3.4133780
 H       -8.2943530        1.3091580       -4.7828740
 H       -7.7505690       -0.3983270       -4.8269660
 C       -2.0972570        4.8668010        0.0628620
 F       -2.6016060        4.1929790        1.1929350
 F       -1.6891720        6.1496020        0.5025290
 F       -3.1721060        5.0746040       -0.8172840
 C        0.1221760        3.3595620        3.5844510
 C        0.4423020        4.8068900        4.0676930
 C       -0.5404930        2.5429320        4.7293650
 H       -0.6287170        3.4228100        2.7869260
 H        1.1314790        4.7935190        4.9244540
 H       -0.4814210        5.3124820        4.3872360
 H        0.9123590        5.4214200        3.2843140
 H       -1.4756460        3.0350160        5.0381160
 H        0.1059890        2.4761770        5.6160670
 H       -0.7810550        1.5254120        4.3990410
 H        2.8904620        1.5930900        0.1044620
 C        4.6381670        1.3213920        4.4670040
 O        5.7412070        0.6843950        3.8966310
 O        4.5496940        1.5630850        5.6930460
 C        6.8273050        0.2903360        4.8209750
 H        7.5805680       -0.1784010        4.1788490
 H        7.2369800        1.1737480        5.3296540
 H        6.4524390       -0.4195920        5.5708830
