75
Mol_000189_2D_DFT last geometry from G09 out file
 Ru        0.0957350        0.2201350        0.3008850
 C       -1.4333970       -0.5994130       -0.2323910
 Cl       -0.0537620       -0.1762400        2.6760510
 Cl        1.3932120        0.1452070       -1.7435960
 H       -2.4121160       -0.1571230       -0.4344470
 H       -1.3589200       -1.7035910       -0.3359370
 C       -0.3957110        2.1064750        0.3927560
 N        0.4525370        3.0091630        1.0135430
 N       -1.5360390        2.8033060        0.0090730
 C       -0.0569160        4.4029310        0.9322340
 C        1.8533810        2.7972510        1.3061060
 C       -1.5513470        4.2260120        0.5526530
 H        0.4986240        4.9491160        0.1539350
 H        0.0760870        4.9027550        1.8956640
 C       -2.5025300        4.4049280        1.7788900
 C       -2.0652240        5.3278020       -0.4132680
 C       -2.6614950        5.9432800        1.9298100
 H       -2.1121780        3.9098180        2.6746660
 H       -3.4772000        3.9569680        1.5448610
 C       -2.3564980        6.5413000        0.5117670
 H       -3.6723770        6.2039600        2.2764270
 H       -1.9585290        6.3438980        2.6753870
 H       -1.4835400        7.2098940        0.5583350
 H       -3.1949520        7.1410600        0.1282390
 H       -2.9971540        4.9880280       -0.8874280
 H       -1.3482420        5.5488530       -1.2102940
 C        2.7327140        2.7537830        0.1969220
 C        2.4253740        2.7082790        2.6131440
 C        4.1173400        2.6012480        0.3341430
 C        4.7088190        2.4853450        1.6284910
 H        4.7218010        2.5582890       -0.5681920
 C        3.8240060        2.5451070        2.7439920
 H        4.2022480        2.4408730        3.7555510
 C       -2.5515860        2.3504530       -0.9031490
 C       -2.3634960        2.2940580       -2.3205310
 C       -3.8104430        1.9533070       -0.3960150
 C       -3.4126530        1.8396020       -3.1506020
 C       -4.6881250        1.4552410       -2.6390610
 H       -3.2133810        1.7909960       -4.2143730
 C       -4.8601030        1.5262170       -1.2220560
 H       -5.7961870        1.2289410       -0.7556800
 H        2.3059440        2.8229690       -0.8009340
 C        1.7021930        2.7250020        3.9324190
 O        0.4649240        3.3677560        3.9046000
 O        2.1783000        2.2577590        4.9932340
 C       -0.2987580        3.3141050        5.1742570
 H       -1.2042020        3.8989670        4.9820420
 H       -0.5467400        2.2717710        5.4133890
 H        0.2848970        3.7510190        5.9955440
 N        6.0861440        2.3201420        1.7995690
 C        6.6540710        2.1583150        3.1465720
 C        6.9663220        2.2132180        0.6276120
 H        7.7417390        2.0451090        3.0730320
 H        6.2542900        1.2660470        3.6590830
 H        6.4509810        3.0365210        3.7827330
 H        6.7040030        1.3497130       -0.0089840
 H        8.0025570        2.0819400        0.9594070
 H        6.9279010        3.1225500        0.0031140
 C       -1.0825620        2.7338630       -2.9788970
 O       -0.9245400        2.1328600       -4.2297680
 O       -0.2530810        3.5523300       -2.5234050
 C        0.3350720        2.4281840       -4.9478130
 H        0.2489070        1.8781240       -5.8913540
 H        0.4356060        3.5077780       -5.1273570
 H        1.1869070        2.0652700       -4.3596890
 H       -3.9551550        1.9408560        0.6829040
 N       -5.7128640        1.0231670       -3.4858940
 C       -7.0090180        0.6133570       -2.9271750
 C       -5.4822320        0.9068880       -4.9339040
 H       -7.6882940        0.3385880       -3.7419440
 H       -7.4842520        1.4306910       -2.3581890
 H       -6.9150470       -0.2606180       -2.2580150
 H       -6.3935180        0.5412290       -5.4205340
 H       -4.6685320        0.1981690       -5.1663150
 H       -5.2281400        1.8802520       -5.3874490
