81
Mol_000123_2D_DFT last geometry from G09 out file
Ru       -0.4433430        0.0893180        0.4699140
C       -1.3946910       -0.5878460       -0.9208620
Cl       -2.1592940        0.5239630        2.1191980
Cl        1.6953790       -0.8623350       -0.1136340
H       -1.6566930       -0.1046050       -1.8655880
H       -1.7092270       -1.6468160       -0.8042880
C       -0.2491370        1.9703270        0.0167880
N        0.6733020        2.7941650        0.6658440
N       -1.0066190        2.7713200       -0.8244570
C        0.5677140        4.2323500        0.2318170
C        1.9456300        2.3854290        1.2637960
C        0.4120530        5.2336400        1.4123880
C       -0.6394120        4.2290920       -0.7511180
H        1.4951150        4.4872560       -0.3041420
C       -0.9784720        5.2055470        2.0121310
H        1.1895330        5.0368400        2.1587660
H        0.6270390        6.2395880        1.0051880
C       -2.0481030        5.1589200        1.1820620
H       -1.0960980        5.1977980        3.0968040
C       -1.8155720        5.1579930       -0.3143240
H       -3.0691910        5.1138170        1.5654110
H       -2.7239200        4.8896510       -0.8672940
H       -1.5452640        6.1775740       -0.6474100
H       -0.3184440        4.5527840       -1.7514010
C        2.1431040        2.1563370        2.6574850
C        3.0495090        2.3204900        0.3782060
C        3.4658750        1.8645170        3.0827720
C        4.5760700        1.7991820        2.2136610
H        3.6249880        1.6758730        4.1436470
C        4.3425720        2.0346140        0.8378450
H        5.1656220        1.9714210        0.1239790
C       -2.1236880        2.3873480       -1.6631310
C       -1.9849330        2.3056930       -3.0821870
C       -3.3796330        2.1536250       -1.0578210
C       -3.1461910        1.9999720       -3.8348900
C       -4.4119390        1.7624620       -3.2487930
H       -3.0514700        1.9348180       -4.9185460
C       -4.5056080        1.8377510       -1.8381710
H       -5.4601510        1.6484790       -1.3439270
C        1.0171500        2.1796750        3.7050520
C        1.2251720        3.2899290        4.7761080
C        0.8600440        0.7996960        4.4080580
H        0.0731780        2.3888670        3.1873080
H        2.1231860        3.1045870        5.3840180
H        0.3620770        3.3157980        5.4593500
H        1.3306900        4.2870070        4.3261390
H       -0.0264530        0.8097900        5.0588970
H        1.7360890        0.5600520        5.0293500
H        0.7279600       -0.0120070        3.6817750
H        2.8791400        2.4652800       -0.6890080
C        5.9860040        1.4603550        2.7172610
C        6.0664240        0.0112210        3.2755490
C        6.5144180        2.4944820        3.7499660
H        6.6599200        1.5050300        1.8447810
H        5.4434520       -0.1107930        4.1742850
H        7.1037750       -0.2384380        3.5488080
H        5.7226050       -0.7190640        2.5282750
H        7.5535680        2.2601620        4.0294600
H        5.9131870        2.4924460        4.6715430
H        6.4944630        3.5144340        3.3367310
C       -0.6383610        2.5030990       -3.8015500
C       -0.6616230        3.7264890       -4.7628100
C       -0.1777640        1.2215370       -4.5542050
H        0.1255770        2.6970640       -3.0361400
H       -1.3557120        3.5689870       -5.6015120
H        0.3397210        3.8969740       -5.1880090
H       -0.9728540        4.6463460       -4.2447130
H        0.8057110        1.3913270       -5.0192400
H       -0.8798700        0.9387260       -5.3522380
H       -0.0777960        0.3690330       -3.8679450
H       -3.4544790        2.1928750        0.0266320
C       -5.6479470        1.4237620       -4.0942980
C       -5.4887060        0.0746610       -4.8506070
C       -6.0302320        2.5739600       -5.0674990
H       -6.4925120        1.3009570       -3.3954610
H       -4.6799380        0.1192580       -5.5955060
H       -6.4191590       -0.1791880       -5.3819670
H       -5.2603410       -0.7455120       -4.1535270
H       -6.9633600        2.3313600       -5.5994150
H       -5.2492610        2.7430190       -5.8240900
H       -6.1838550        3.5186050       -4.5243230
