89
M00000280_2D_DFT last geometry from G09 out file
 Ru        0.4754440       -0.0238980       -0.8140950
 C       -1.1346730       -0.8145300       -0.4589800
 Cl        1.4140190       -0.9391440        1.2785210
 Cl        0.3250060        0.0959370       -3.2577720
 H       -1.9292540       -0.4281310        0.1829220
 H       -1.2773630       -1.8575070       -0.8150940
 C        0.0759260        1.8161150       -0.3705900
 N        1.1012110        2.7061100        0.0109720
 N       -1.0801310        2.5839880       -0.5605920
 C        0.7458740        4.1429830       -0.2881890
 C        2.1502200        2.4154310        0.9768070
 C       -0.8136110        4.0886230       -0.4679660
 H        1.0001980        4.7418240        0.5934590
 H       -1.0804560        4.5016080       -1.4504360
 C        1.9728690        2.8629400        2.3046500
 C        3.3914060        1.7795290        0.6798440
 C        2.9624670        2.7418870        3.2886630
 C        4.2279560        2.1526020        2.9878090
 H        2.7321140        3.0862530        4.2941020
 C        4.4013790        1.6691450        1.6604170
 H        5.3130290        1.1562570        1.3760900
 C       -2.2656440        2.1223790       -1.2734650
 C       -2.2589130        2.2261430       -2.6827220
 C       -3.4712380        1.6472470       -0.6632430
 C       -3.3538950        1.8781750       -3.4818550
 C       -4.5614410        1.3986570       -2.8933090
 H       -3.2454930        1.9534470       -4.5607310
 C       -4.5803640        1.3010750       -1.4724360
 H       -5.4672820        0.9438050       -0.9636620
 H       -1.3453280        2.5448310       -3.1735940
 C       -3.6308960        1.4566350        0.8158620
 O       -4.9831800        1.5431270        1.2054090
 O       -2.7296590        1.2367820        1.6533850
 C       -5.2618610        1.2972790        2.6366450
 H       -6.3492780        1.3970190        2.7271030
 H       -4.9324080        0.2902320        2.9281120
 H       -4.7468020        2.0383980        3.2631750
 C        1.5844420        4.7628100       -1.5048350
 C        3.0863150        4.8668860       -1.0984510
 C        1.4654630        3.9225310       -2.8048480
 C        1.1158470        6.2157160       -1.8223860
 H        3.5689930        3.8899340       -1.0202920
 H        3.2129710        5.3848440       -0.1348840
 H        3.6351870        5.4432190       -1.8586910
 H        0.4558170        3.9749540       -3.2350120
 H        1.7101940        2.8686240       -2.6470110
 H        2.1556610        4.3213840       -3.5642290
 H        1.7180780        6.6070100       -2.6560300
 H        1.2564560        6.8937070       -0.9694200
 H        0.0648440        6.2664680       -2.1345070
 N       -5.6696150        1.0384040       -3.6670830
 C       -6.8875190        0.5224100       -3.0271870
 C       -5.5875560        1.0791090       -5.1342610
 H       -6.7048280       -0.4235550       -2.4860990
 H       -7.6484040        0.3289580       -3.7920240
 H       -7.3104880        1.2483190       -2.3121110
 H       -4.7950360        0.4153080       -5.5221970
 H       -5.3902590        2.1000110       -5.5046180
 H       -6.5407020        0.7490810       -5.5630060
 C       -1.6776010        4.9201260        0.5938640
 C       -1.5597150        4.3709170        2.0432340
 C       -1.2128600        6.4114580        0.6143460
 C       -3.1771080        4.9679620        0.1617270
 H       -0.6082780        4.6676190        2.5056680
 H       -1.6444220        3.2816800        2.0823570
 H       -2.3587830        4.7989710        2.6680950
 H       -1.8119160        6.9536600        1.3612460
 H       -1.3670240        6.9073580       -0.3534100
 H       -0.1604470        6.5301720        0.8992880
 H       -3.7026250        4.0248600        0.3122980
 H       -3.2823490        5.2449810       -0.8985350
 H       -3.7036520        5.7306970        0.7555000
 H        1.0179760        3.2946560        2.5871470
 C        3.6159260        1.1146840       -0.6248970
 O        4.9490380        1.0769910       -1.0143920
 O        2.7206450        0.5977640       -1.3390810
 C        5.2494780        0.3275560       -2.2598880
 H        4.7049480        0.7620470       -3.1082910
 H        6.3323180        0.4313270       -2.3870320
 H        4.9607440       -0.7262160       -2.1466630
 N        5.2391680        2.0386660        3.9489290
 C        4.9845640        2.4435330        5.3381250
 C        6.4985360        1.3559130        3.6203370
 H        4.7107710        3.5101870        5.4056260
 H        5.8935310        2.2983210        5.9332090
 H        4.1763740        1.8517120        5.8050090
 H        6.3448010        0.2893600        3.3747190
 H        7.1779340        1.4092480        4.4789700
 H        7.0049210        1.8344100        2.7656660
