100
Mol_000051_2D_DFT last geometry from G09 out file
Ru        0.3139870       -0.1652290        0.1524910
C       -0.9012970       -1.1014950       -0.8197480
Cl       -0.4385750       -0.7740320        2.3740830
Cl        2.0669320       -0.2066850       -1.5276730
H       -1.7756760       -0.7346530       -1.3623620
H       -0.7037620       -2.1935840       -0.8797470
C       -0.3531320        1.6817520        0.1562120
N        0.3853860        2.6984590        0.7656930
N       -1.5518870        2.2266890       -0.2827490
C       -0.2553000        4.0651680        0.5258080
C        1.7335580        2.4800380        1.2949520
C       -1.7696030        3.6538430        0.3332760
H        0.1146450        4.4164500       -0.4498670
C        2.8589270        2.6190690        0.4260530
C        1.9074960        2.1825880        2.6811940
C        4.1600350        2.3321290        0.9271250
C        4.3308310        1.9044770        2.2753330
C        3.2173100        1.8887600        3.1641720
C       -2.4957140        1.6199390       -1.2166520
C       -3.6803220        0.9683390       -0.7451290
C       -2.2265690        1.6897860       -2.6199160
C       -4.7002330        0.6208040       -1.6814940
C       -4.4971340        0.8276810       -3.0776270
C       -3.2285770        1.2732530       -3.5457560
C        0.1219990        5.1817590        1.5729220
C       -0.8237390        6.4189300        1.5652060
C        1.5621620        5.7304780        1.3570850
H        0.0809810        4.7400190        2.5775350
H       -1.8681880        6.1835110        1.7912640
H       -0.7912290        6.9474960        0.6022290
H       -0.4789880        7.1268640        2.3340580
H        2.3344600        4.9682100        1.4760670
H        1.7644570        6.5241290        2.0924710
H        1.6663560        6.1764020        0.3551890
C       -2.5768200        4.5907520       -0.6233920
C       -1.9035740        5.2796340       -1.8361430
H       -3.4393670        4.0156950       -0.9879270
H       -3.0013320        5.3901400       -0.0054730
C       -2.9375070        6.0654980       -2.6834870
H       -1.1298530        5.9862930       -1.4987290
H       -1.4023490        4.5524500       -2.4813150
C       -2.3066620        6.8156760       -3.8776490
H       -3.4658890        6.7905530       -2.0390250
H       -3.7065640        5.3671880       -3.0571530
H       -3.0722990        7.3558650       -4.4565170
H       -1.7979240        6.1201570       -4.5643350
H       -1.5618970        7.5539000       -3.5391660
C       -2.5040880        3.5049820        1.7366350
C       -4.0173280        3.8295380        1.8596190
H       -2.3362880        2.4844120        2.0928930
H       -1.9923150        4.1488480        2.4602700
C       -4.5600550        3.4974580        3.2732940
H       -4.1978000        4.9003540        1.6729070
H       -4.6057340        3.2849020        1.1088300
C       -6.0523600        3.8543590        3.4540150
H       -3.9642530        4.0404400        4.0285980
H       -4.4134220        2.4245880        3.4837470
H       -6.3999480        3.6029910        4.4683780
H       -6.6854090        3.3050130        2.7386280
H       -6.2290710        4.9307300        3.2973390
C        2.7098710        3.1041620       -1.0070010
H        1.6715740        3.1011100       -1.3362850
H        3.2624940        2.4642930       -1.7027690
H        3.0982760        4.1312390       -1.1128260
C        0.7390490        2.1995210        3.6542250
H        0.8545800        3.0167770        4.3861210
H        0.6676480        1.2593360        4.2131940
H       -0.2106020        2.3322420        3.1397030
C        5.3639660        2.4652730        0.0005360
H        5.2545880        3.3126380       -0.6878040
H        5.4880570        1.5618180       -0.6211710
H        6.2977190        2.6186760        0.5525700
C        5.7074950        1.4617220        2.7637080
H        5.6364720        0.7832960        3.6204700
H        6.3325310        2.3174550        3.0739570
H        6.2556220        0.9271130        1.9777410
C        3.4266140        1.5429090        4.6359790
H        2.6198250        1.9241630        5.2692770
H        4.3657950        1.9599170        5.0229500
H        3.4643350        0.4503600        4.7890190
C       -3.8091320        0.5142480        0.7027890
H       -4.0120830       -0.5666360        0.7338090
H       -4.6283860        1.0066650        1.2428300
H       -2.8847890        0.6644080        1.2573600
C       -0.8691060        2.1117740       -3.1591210
H       -0.2450820        2.5702720       -2.3943950
H       -0.9565790        2.8115870       -4.0012910
H       -0.3152650        1.2328500       -3.5239050
C       -6.0148060        0.0095400       -1.2008330
H       -6.0050850       -0.2238130       -0.1335360
H       -6.2510460       -0.9220800       -1.7371370
H       -6.8587590        0.6990250       -1.3700980
C       -5.6136350        0.5204580       -4.0715130
H       -5.6339580        1.2500210       -4.8919720
H       -6.6012020        0.5390090       -3.5992910
H       -5.4924120       -0.4775670       -4.5273130
C       -2.9248920        1.3144440       -5.0406700
H       -1.9071600        0.9604050       -5.2508970
H       -2.9963090        2.3387660       -5.4466850
H       -3.6087130        0.6858460       -5.6200650
