57
Mol_000054_2D_DFT last geometry from G09 out file
Ru       -0.2015130        0.0872090        0.7203880
C       -1.2096290       -0.7109570       -0.5618560
Cl       -1.8378570        0.6328550        2.4111460
Cl        1.9125760       -0.8879550        0.0818310
H       -1.5015670       -0.3220760       -1.5413290
H       -1.5201890       -1.7526330       -0.3334820
C       -0.0298350        1.9142440        0.0774810
N        0.9017250        2.7994700        0.6160110
N       -0.7637420        2.6116900       -0.8720960
C        0.8676320        4.1558700       -0.0321460
C        2.0931920        2.4654280        1.3921440
C        0.7079670        5.3361480        0.9722850
C       -0.2994760        4.0336440       -1.0576200
H        1.8243850        4.2934180       -0.5601420
C       -0.7141740        5.4908080        1.4706010
H        1.4219110        5.2146740        1.7954420
H        1.0167490        6.2522530        0.4345940
C       -1.7359750        5.3734740        0.5887700
H       -0.8929890        5.6797760        2.5304680
C       -1.4213020        5.1001740       -0.8671680
H       -2.7775380        5.4648750        0.9025800
H       -2.3163760        4.8033080       -1.4272710
H       -1.0533470        6.0260820       -1.3473940
H        0.0856580        4.1354380       -2.0820000
C        2.1397310        2.5464170        2.8156670
C        3.2630010        2.1658870        0.6487600
C        3.3985750        2.3090830        3.4326400
C        4.5582020        2.0146970        2.6942570
H        3.4678170        2.3636790        4.5188210
C        4.4922340        1.9385890        1.2871480
H        5.3761090        1.6887170        0.6991940
C       -1.9517750        2.1742180       -1.5735990
C       -1.9155690        1.8914580       -2.9713180
C       -3.1660530        2.0834720       -0.8494340
C       -3.1377660        1.5311450       -3.5974060
C       -4.3467870        1.4433130       -2.8808080
H       -3.1322000        1.2952200       -4.6633440
C       -4.3597750        1.7135300       -1.4952300
H       -5.2844660        1.6333240       -0.9221890
C        0.9367910        2.9152350        3.6855840
C        0.7162270        2.0124840        4.9254890
H        0.0244390        2.9049950        3.0818410
H        1.0705800        3.9540640        4.0395120
H        1.5461890        2.0741150        5.6444070
H        0.5882610        0.9619740        4.6334440
H       -0.1998670        2.3245120        5.4494320
H        3.1903490        2.0795050       -0.4347230
H        5.5034020        1.8411910        3.2117650
C       -0.6311450        1.8964600       -3.7989380
C       -0.5622280        3.0117200       -4.8774830
H       -0.5448160        0.9233080       -4.3112420
H        0.2433520        1.9665840       -3.1394850
H        0.3857940        2.9454370       -5.4335800
H       -0.6256730        4.0164820       -4.4335290
H       -1.3828860        2.9205480       -5.6039350
H       -3.1543010        2.2776150        0.2208130
H       -5.2654300        1.1547070       -3.3944670
