97
M00000312_2D_DFT last geometry from G09 out file
 Ru       -0.3399010        0.2633810        0.3580100
 C        1.1565070       -0.3454100       -0.4885560
 Cl       -1.7043270       -1.0928890       -1.2336920
 Cl        0.4986360        0.1379590        2.6511300
 H        1.6393970        0.1141340       -1.3551260
 H        1.5363160       -1.3458370       -0.2046580
 C       -0.2300910        2.2056700       -0.0633230
 N        0.6826140        3.1789910        0.3606400
 N       -1.2194620        2.8419190       -0.8104180
 C        0.3155840        4.6129060       -0.1094500
 C        1.7664340        2.9355160        1.3272680
 C       -1.0139360        4.3589890       -0.9693520
 H        0.0358880        5.1494980        0.8029570
 H       -0.7749350        4.5213990       -2.0259640
 C        1.7130270        3.3715440        2.7111010
 C        2.9608020        2.2619650        0.8658230
 C        2.8983880        3.2320420        3.4809400
 C        4.0245490        2.5795430        2.9988410
 H        2.9362260        3.5943680        4.5015270
 C        4.0674560        2.0467510        1.7197800
 H        4.9441010        1.5151510        1.3680070
 C       -2.3096100        2.1464800       -1.5067670
 C       -2.3751080        1.9843560       -2.9425600
 C       -3.4423570        1.7455200       -0.7181070
 C       -3.6368090        1.6351430       -3.4940250
 C       -4.7442400        1.3664220       -2.6996310
 H       -3.7613340        1.5488840       -4.5680640
 C       -4.6685770        1.3723500       -1.3113140
 H       -5.5271190        1.1033440       -0.7021260
 C       -1.2422150        2.0882100       -4.0314230
 C       -1.4058480        3.3980980       -4.8690120
 C        0.1944910        2.0024150       -3.4717020
 C       -1.3647950        0.8655800       -5.0132230
 H       -2.4163880        3.4883890       -5.2923680
 H       -0.6908980        3.3914780       -5.7054350
 H       -1.2081420        4.2989460       -4.2735070
 H        0.9107050        2.0749650       -4.3028990
 H        0.3513080        1.0405830       -2.9763780
 H        0.4402460        2.7905820       -2.7681530
 H       -2.2298670        0.9241500       -5.6865280
 H       -1.4200690       -0.0790630       -4.4561750
 H       -0.4700380        0.8367270       -5.6522390
 C       -3.5437250        1.6253290        0.7800400
 O       -2.5762100        0.7982980        1.3687300
 O       -4.5104720        2.0574730        1.4428840
 C       -2.9554530        0.2599240        2.7161420
 H       -3.8601060       -0.3499660        2.5986210
 H       -2.0956910       -0.3348170        3.0258790
 H       -3.1444380        1.0853510        3.4105570
 C        1.4897190        5.5481080       -0.7754420
 C        1.6787750        5.3644060       -2.3074940
 C        1.1847660        7.0665290       -0.5248670
 C        2.8877430        5.3489190       -0.1076730
 H        0.7802480        5.6289360       -2.8816720
 H        1.9810500        4.3462540       -2.5580400
 H        2.4761140        6.0424510       -2.6485370
 H        2.1061270        7.6389710       -0.7012440
 H        0.8754910        7.2725820        0.5101070
 H        0.4353750        7.4716960       -1.2047540
 H        3.3361530        4.3913030       -0.3533770
 H        2.8578880        5.4664560        0.9820970
 H        3.5635360        6.1237990       -0.4976470
 F       -5.9648210        1.0447270       -3.3182180
 C       -2.3144880        5.2977760       -0.7109140
 C       -3.4465380        4.9973680       -1.7490010
 C       -2.9193050        5.2277740        0.7156280
 C       -1.9674440        6.7964590       -0.9606730
 H       -4.1903700        5.8055630       -1.6945250
 H       -3.9813040        4.0685620       -1.5578610
 H       -3.0654690        4.9771890       -2.7777550
 H       -2.2393930        5.6401230        1.4709320
 H       -3.2058650        4.2202800        1.0171860
 H       -3.8337010        5.8392940        0.7420250
 H       -1.3249520        7.2125330       -0.1827860
 H       -2.9027360        7.3737140       -0.9409870
 H       -1.5060260        6.9633260       -1.9438910
 C        0.5276380        3.9888490        3.5529690
 C        0.6608340        5.5472520        3.5931900
 C       -0.8799690        3.5624150        3.0727860
 C        0.5901630        3.4894040        5.0433760
 H        1.6474960        5.8510860        3.9724500
 H       -0.1009920        5.9651770        4.2684590
 H        0.5255130        6.0142590        2.6109740
 H       -1.0030680        2.4858730        3.2095880
 H       -1.0727720        3.7924200        2.0320770
 H       -1.6405100        4.0807880        3.6746130
 H       -0.3590520        3.7455110        5.5358720
 H        1.3834630        3.9639950        5.6365340
 H        0.7146850        2.3999020        5.0914170
 C        3.2263090        1.8521220       -0.5562900
 O        4.1824630        0.8262090       -0.6199830
 O        2.7605930        2.3615830       -1.5974100
 C        4.6628340        0.4459100       -1.9654760
 H        3.8410380        0.0454810       -2.5742440
 H        5.1037520        1.3128250       -2.4770180
 H        5.4172900       -0.3253160       -1.7777400
 F        5.1455040        2.4463150        3.8379350
