91
M00000314_2D_DFT last geometry from G09 out file
 Ru        0.2753260       -0.1271150       -0.5773840
 C       -1.3341170       -0.9581660       -0.4699910
 Cl        1.0525840       -0.8891680        1.5923960
 Cl        0.5193100       -0.1508330       -2.9915220
 H       -2.3220540       -0.5769340       -0.2202280
 H       -1.2823640       -2.0513080       -0.6614330
 C       -0.0414970        1.7850010       -0.2870200
 N        0.9855140        2.6222550        0.1953730
 N       -1.1068130        2.6043280       -0.6820340
 C        0.7126300        4.1059400       -0.0867870
 C        1.9835340        2.2585430        1.2215190
 C       -0.7685910        4.1040580       -0.6452210
 H        0.7349330        4.6269450        0.8794720
 H       -0.7337380        4.4313720       -1.6902360
 C        1.6642730        2.5037600        2.5938720
 C        3.2929770        1.7345250        0.9538290
 C        2.6558740        2.3747720        3.5928530
 C        3.9723080        1.9634660        3.3204510
 H        2.3578430        2.5801780        4.6219500
 C        4.2509950        1.6155350        1.9872670
 H        5.2320830        1.2126170        1.7428650
 C       -2.2854450        2.1215220       -1.4005630
 C       -2.3444390        2.2393000       -2.8264830
 C       -3.4338330        1.5773280       -0.7353170
 C       -3.5032370        1.8207460       -3.5186720
 C       -4.6378450        1.2882900       -2.8757230
 H       -3.4971850        1.9106220       -4.6049860
 C       -4.5753600        1.1803030       -1.4756400
 H       -5.4286070        0.7681480       -0.9397930
 C       -1.2169360        2.8041690       -3.6701180
 H       -0.2366770        2.5909270       -3.2469440
 H       -1.3263040        3.8932730       -3.8034890
 H       -1.2354100        2.3532390       -4.6697760
 C       -3.6388100        1.4084500        0.7575040
 F       -4.5202620        2.4040260        1.2895050
 F       -2.4969910        1.4309350        1.5685100
 F       -4.2865190        0.1737420        1.0659650
 C        1.8373270        4.8077020       -1.0081610
 C        3.1161280        5.0528470       -0.1449700
 C        2.1724520        3.9838410       -2.2847530
 C        1.4304580        6.2252540       -1.5198240
 H        2.8728080        5.6214780        0.7668100
 H        3.8375060        5.6498700       -0.7219320
 H        3.6262680        4.1382080        0.1528480
 H        1.4198070        4.1447060       -3.0674290
 H        2.2452310        2.9132720       -2.1045770
 H        3.1360720        4.3177490       -2.6946250
 H        1.3209190        6.9579210       -0.7120250
 H        0.5141380        6.2203860       -2.1211340
 H        2.2371570        6.5843840       -2.1759660
 C       -5.8822010        0.8271170       -3.6429520
 C       -5.5703860       -0.3796640       -4.5724490
 C       -6.5508910        1.9901430       -4.4274230
 H       -6.6149660        0.4783650       -2.8959660
 H       -5.1348630       -1.2162120       -4.0061090
 H       -4.8609520       -0.1075500       -5.3679930
 H       -6.4933980       -0.7373840       -5.0537810
 H       -5.8931900        2.3786380       -5.2193410
 H       -6.8072940        2.8261240       -3.7593120
 H       -7.4783360        1.6409540       -4.9063670
 C       -1.8450780        5.0895230        0.0448360
 C       -2.1667630        4.7876000        1.5320920
 C       -1.3393530        6.5664810        0.0213050
 C       -3.1710470        5.1036040       -0.7834350
 H       -1.3295240        5.0607240        2.1855760
 H       -2.4222280        3.7472120        1.7176270
 H       -3.0283890        5.3966420        1.8426030
 H       -2.0944740        7.1908970        0.5208430
 H       -1.2151460        6.9581840       -0.9949330
 H       -0.4002510        6.7008590        0.5694110
 H       -3.7910790        5.9491840       -0.4508790
 H       -3.7717820        4.2013900       -0.6583580
 H       -2.9779420        5.2448730       -1.8573850
 C        0.2681640        2.8267660        3.0856080
 H       -0.4858150        2.7210240        2.3129870
 H        0.2088910        3.8426150        3.5048450
 H        0.0036720        2.1275560        3.8922380
 C        3.8091750        1.2188860       -0.3685130
 F        4.6431110        2.1548190       -1.0597580
 F        2.8103550        0.8397460       -1.2843030
 F        4.6264930        0.0706580       -0.2155150
 C        5.0427460        1.8272140        4.4084300
 C        4.6771380        0.7224230        5.4397620
 C        5.3415580        3.1819820        5.1081840
 H        5.9738140        1.5077730        3.9109370
 H        3.7717010        0.9818000        6.0086190
 H        5.4985940        0.5870370        6.1600390
 H        4.4961750       -0.2410350        4.9411540
 H        6.1605470        3.0628340        5.8339890
 H        4.4642810        3.5597060        5.6547200
 H        5.6426090        3.9493830        4.3790340
