67
M00000307_2D_DFT last geometry from G09 out file
 Ru        0.2099700        0.1605480        0.7868210
 C       -1.1897430       -0.7275930        0.0454350
 Cl       -0.5640650        0.6082030        3.0319710
 Cl        1.9566760       -0.6812040       -0.6487230
 H       -1.9020090       -0.3910150       -0.7109100
 H       -1.2902890       -1.7831350        0.3779670
 C        0.0086860        2.0016400        0.1684430
 N        1.0307580        2.9198300        0.3519440
 N       -1.0826420        2.6928980       -0.3440400
 C        0.5711910        4.3444010        0.1488160
 C        2.2766050        2.6551220        1.0401910
 C       -0.7596610        4.1528530       -0.6032700
 H        0.3555910        4.7642300        1.1432600
 H       -0.5850710        4.2768730       -1.6805170
 C        2.2649830        2.7203250        2.4530520
 C        3.4983060        2.3813800        0.3518510
 C        3.4416180        2.5150770        3.1992120
 C        4.6508850        2.2431900        2.5284040
 H        3.4051090        2.5548910        4.2886810
 C        4.6708460        2.1728780        1.1233860
 H        5.5974460        1.9440970        0.6038380
 C       -2.1712720        2.1130840       -1.0974100
 C       -1.9481770        1.8656690       -2.4742150
 C       -3.4362320        1.8000010       -0.5247960
 C       -2.9644270        1.3339950       -3.2906240
 C       -4.2217070        1.0263400       -2.7279120
 H       -2.7701930        1.1478940       -4.3478490
 C       -4.4436430        1.2448170       -1.3554210
 H       -5.4014810        0.9813890       -0.9100400
 H       -0.9621270        2.0728010       -2.8907600
 C       -3.7478800        2.0286360        0.9299040
 O       -4.4346800        0.9288580        1.4536680
 O       -3.4767770        3.0464530        1.5940480
 C       -4.7512340        0.9853250        2.9020300
 H       -5.2592740        0.0372290        3.1085310
 H       -3.8222010        1.0693730        3.4790850
 H       -5.4058760        1.8408720        3.1191990
 C        1.5456450        5.2905910       -0.5619170
 C        2.5991620        5.9006680        0.1602220
 N        1.3178030        5.5754710       -1.8770220
 C        3.4689460        6.7880750       -0.5045530
 H        2.7338460        5.6880330        1.2199570
 C        3.2524710        7.0605610       -1.8715390
 H        4.2902380        7.2618760        0.0350240
 C        2.1566270        6.4384960       -2.5073330
 H        3.8982270        7.7427260       -2.4251790
 H        1.9337410        6.6370900       -3.5577440
 H       -5.0161190        0.6072850       -3.3469510
 C       -1.8400120        5.1492640       -0.1714530
 C       -2.8723900        5.5140720       -1.0663550
 N       -1.7383640        5.6952610        1.0738310
 C       -3.8523480        6.4358400       -0.6470340
 H       -2.9066820        5.0878790       -2.0686860
 C       -3.7664180        6.9792260        0.6515450
 H       -4.6598420        6.7275520       -1.3203360
 C       -2.6852720        6.5845000        1.4685530
 H       -4.5031550        7.6944030        1.0185610
 H       -2.5667680        6.9925410        2.4744080
 H        1.3207170        2.9036750        2.9610890
 C        3.5790730        2.2958750       -1.1477440
 O        4.7963980        1.7322770       -1.5512070
 O        2.7187960        2.6757340       -1.9680920
 C        4.9546480        1.5006610       -3.0014080
 H        4.8861060        2.4470340       -3.5560780
 H        5.9505140        1.0555940       -3.1035120
 H        4.1779980        0.8101760       -3.3567330
 H        5.5695030        2.0752370        3.0923370
