77
M00000311_2D_DFT last geometry from G09 out file
 Ru        0.4513950        0.1773880       -0.6615440
 C       -1.1619020       -0.6205580       -0.9027550
 Cl        0.9452280       -0.6347740        1.5507490
 Cl        1.0844680        0.3082940       -3.0052450
 H       -2.1613210       -0.1811060       -0.8982530
 H       -1.1048260       -1.7121720       -1.1023620
 C        0.1236590        2.0815870       -0.3723860
 N        1.2117740        2.9315030       -0.0662640
 N       -1.0110160        2.8551170       -0.5734490
 C        0.8587620        4.3899720       -0.3913590
 C        2.0658210        2.6760350        1.1181080
 C       -0.7055800        4.3610430       -0.5701750
 H        1.1233620        4.9718720        0.4989160
 H       -0.9513370        4.7021010       -1.5839130
 C        1.3830170        2.7190760        2.3589510
 C        3.4957350        2.4720560        1.1216230
 C        2.0337440        2.6497850        3.6000050
 C        3.4346220        2.5188450        3.6129670
 H        1.4589210        2.6839760        4.5256970
 C        4.1328520        2.4177200        2.4010530
 H        5.2059430        2.2504360        2.4435930
 C       -2.2061110        2.3751780       -1.2687270
 C       -2.1320160        2.3503410       -2.6805380
 C       -3.4290120        1.9834490       -0.6099480
 C       -3.2312690        2.0055540       -3.4871780
 C       -4.4454770        1.6653370       -2.8602010
 H       -3.1329070        1.9949360       -4.5726460
 C       -4.5298510        1.6449900       -1.4574820
 H       -5.4669980        1.3325730       -1.0023490
 H       -1.1821680        2.5933130       -3.1495850
 N       -3.6149670        1.9730410        0.8027310
 C       -4.9871850        2.0779810        1.3328220
 C       -2.7404260        1.1626300        1.6803180
 H       -4.9295070        2.3993590        2.3833020
 H       -5.5476200        1.1208190        1.3106490
 H       -5.5622970        2.8316340        0.7803330
 H       -3.0970290        0.1159420        1.7534110
 H       -2.7405880        1.5849920        2.6962020
 H       -1.7155960        1.1384450        1.3179690
 C        1.6822390        5.0150280       -1.6154040
 C        1.6515240        4.1101890       -2.8756100
 C        1.1356720        6.4155050       -2.0346620
 C        3.1545280        5.2450620       -1.1688530
 H        0.6428140        4.0403170       -3.3069380
 H        1.9997130        3.0962570       -2.6713420
 H        2.3006950        4.5416840       -3.6524840
 H        1.7488630        6.7855810       -2.8697820
 H        1.2107070        7.1519400       -1.2252430
 H        0.0973080        6.3900460       -2.3904330
 H        3.2038070        5.9077700       -0.2894250
 H        3.7174870        5.7324640       -1.9797000
 H        3.6554210        4.3063050       -0.9211960
 H       -5.3185080        1.3891190       -3.4544740
 C       -1.5806410        5.2795360        0.4111730
 C       -1.6106260        4.7721730        1.8763280
 C       -1.0305420        6.7405240        0.4452920
 C       -3.0393020        5.3905400       -0.1310340
 H       -1.9467530        3.7354610        1.9336130
 H       -2.3146830        5.3855270        2.4589420
 H       -0.6288460        4.8630750        2.3587740
 H       -1.6475180        7.3237260        1.1449340
 H       -1.0934170        7.2324300       -0.5324820
 H        0.0048640        6.8028780        0.8026220
 H       -3.5918860        4.4572890       -0.0209220
 H       -3.0544290        5.6803100       -1.1929470
 H       -3.5817040        6.1670430        0.4296760
 H        0.3023970        2.8064230        2.3395650
 N        4.3076870        2.3582750       -0.0401380
 C        5.7581750        2.5915420        0.0785480
 C        3.9748100        1.3558600       -1.0700650
 H        6.1638240        2.7659050       -0.9286550
 H        6.3126950        1.7369730        0.5166630
 H        5.9592760        3.4858700        0.6824450
 H        4.4975210        1.5984310       -2.0061390
 H        2.9112590        1.3613210       -1.2914810
 H        4.2702730        0.3338370       -0.7622170
 H        3.9812960        2.4578740        4.5558120
