75
Mol_000092_2D_DFT last geometry from G09 out file
Ru        0.1091190       -0.1045630        0.3004580
C       -1.4147960       -0.8231990       -0.3771700
Cl       -0.4269080       -0.1460590        2.6655320
Cl        1.6190990       -0.6635470       -1.4949860
H       -2.2384760       -0.3275710       -0.8951530
H       -1.4926530       -1.9260340       -0.2622900
C       -0.0702810        1.8090910       -0.0232820
N        1.0227340        2.6624390        0.1472780
N       -1.1703020        2.6095350       -0.3583080
C        0.5901990        4.0988850        0.1721330
C        2.3427770        2.2992870        0.6509540
C        0.3725970        4.6438400        1.6107320
C       -0.6886130        4.0174090       -0.6839640
H        1.3415930        4.7223270       -0.3250920
C       -0.4870080        5.8899920        1.5977880
H       -0.1070370        3.8719770        2.2319380
H        1.3478760        4.8527100        2.0737010
C       -1.4261680        6.1139740        0.6485000
H       -0.3462610        6.6111990        2.4072210
C       -1.7005190        5.1799250       -0.5117850
H       -2.0383350        7.0197640        0.6895200
H       -2.7207970        4.7774110       -0.4378420
H       -1.7020840        5.7728210       -1.4425940
H       -0.3911290        3.9950910       -1.7453260
C        2.3814220        1.8704380        2.0036390
C        3.5631920        2.4432660       -0.0914500
C        3.5801100        1.5618070        2.6593720
C        4.8056160        1.7164020        1.9757620
H        3.5550760        1.2177060        3.6944400
C        4.7544860        2.1598520        0.6373920
H        5.7074060        2.2770280        0.1261710
C       -2.3592420        2.1573580       -1.0738970
C       -2.1384670        1.8937650       -2.4557830
C       -3.6767650        2.0451140       -0.5271890
C       -3.1702500        1.5276350       -3.3257670
C       -4.4917290        1.4172820       -2.8285310
H       -2.9509460        1.3221350       -4.3750250
C       -4.6958990        1.6717190       -1.4583530
H       -5.7128080        1.5669670       -1.0862560
H        1.4446780        1.7783500        2.5454640
C        3.7853170        2.8837800       -1.5849860
C        4.7236580        1.8477410       -2.2970960
C        2.5157830        2.9736330       -2.4791680
C        4.4769510        4.2890900       -1.5899690
H        4.2751460        0.8462490       -2.2767820
H        5.7217860        1.7857530       -1.8458610
H        4.8619070        2.1424750       -3.3483290
H        1.8581630        3.8003270       -2.1951950
H        1.9485270        2.0385380       -2.4681080
H        2.8338660        3.1647240       -3.5153790
H        4.6699100        4.6101500       -2.6252480
H        5.4375290        4.2779750       -1.0570050
H        3.8410280        5.0506920       -1.1126410
C        6.1309120        1.3888510        2.6433420
H        6.9697680        1.9173610        2.1686070
H        6.3450610        0.3085530        2.5793610
H        6.1221360        1.6538740        3.7108640
H       -1.1183560        1.9553760       -2.8347080
C       -4.1605500        2.2219590        0.9567150
C       -4.7172980        0.8458020        1.4612290
C       -3.0845900        2.6676600        1.9834060
C       -5.3082820        3.2876300        1.0057960
H       -5.5289290        0.4589070        0.8304720
H       -5.1123110        0.9605170        2.4817970
H       -3.9185770        0.0925530        1.4960960
H       -3.5557340        2.7168590        2.9772140
H       -2.6860410        3.6623850        1.7641750
H       -2.2585290        1.9573480        2.0492010
H       -5.6495970        3.4102330        2.0445000
H       -6.1827070        3.0077620        0.4037130
H       -4.9564400        4.2679500        0.6508800
C       -5.6422950        1.0295800       -3.7427300
H       -6.5911580        0.9515100       -3.1950720
H       -5.4553290        0.0593980       -4.2301760
H       -5.7798330        1.7710790       -4.5464690
