73
Mol_000091_2D_DFT last geometry from G09 out file
Ru        0.3546820       -0.1767280       -0.1176260
C       -0.7781670       -1.0415360       -1.2425050
Cl       -0.7501630       -0.3870660        2.0268830
Cl        2.2824190       -0.2380170       -1.5838070
H       -1.4524740       -0.6392270       -2.0024780
H       -0.7058750       -2.1495950       -1.1879610
C       -0.0868290        1.7073090       -0.2988520
N        0.7742300        2.6743490        0.1992980
N       -1.1924780        2.3648390       -0.8096870
C        1.9263610        2.3718340        1.0285630
C        0.3685400        4.0886310       -0.2556070
C        3.2279250        2.2653840        0.4810950
C        1.7460990        2.1977780        2.4228420
C        4.3281220        2.0138040        1.3176140
C        4.1517430        1.8550190        2.7146770
H        5.3283770        1.9215000        0.8968700
C        2.8467500        1.9378750        3.2591700
H        2.6968680        1.7942800        4.3266940
C       -1.2212100        3.8481670       -0.3580860
C       -2.3107190        1.7206770       -1.4546000
C       -3.3132380        1.0666910       -0.6972980
C       -2.4117700        1.7425340       -2.8667790
C       -4.4144540        0.4734250       -1.3412270
C       -4.5303950        0.5177180       -2.7532290
H       -5.1788760       -0.0318290       -0.7550640
C       -3.5123010        1.1506380       -3.5105970
H       -3.5934640        1.1649170       -4.5967870
C       -5.6823650       -0.0921480       -3.4892920
O       -6.5977680       -0.6947010       -2.6237680
O       -5.8302160       -0.0758710       -4.7331480
C       -7.7748720       -1.3368200       -3.2500170
H       -8.3488260       -1.7418840       -2.4098090
H       -8.3632010       -0.5962640       -3.8089620
H       -7.4565490       -2.1372630       -3.9317500
C        1.1004580        4.3016490       -1.6399300
C        1.0530110        5.6699730       -2.3716010
H        2.1570800        4.0846590       -1.4381830
H        0.7678300        3.5131190       -2.3305020
H        1.2114640        6.5234170       -1.7003200
H        0.1149940        5.8427940       -2.9105370
H        1.8610210        5.6929560       -3.1200200
C        0.7382780        5.1920530        0.7834200
C        2.2016610        5.6872710        0.9033140
H        0.1131210        6.0653310        0.5473930
H        0.4248760        4.8504670        1.7761440
H        2.8823880        4.9146440        1.2724220
H        2.2262170        6.5163080        1.6287020
H        2.6081270        6.0715510       -0.0396040
C       -1.9086300        4.7880200       -1.3966730
C       -3.4552820        4.8456900       -1.4841180
H       -1.5567820        5.8064300       -1.1775990
H       -1.5251960        4.5431000       -2.3935210
H       -3.9264870        5.1730420       -0.5501190
H       -3.9057990        3.8906830       -1.7702570
H       -3.7296050        5.5793450       -2.2591610
C       -1.9882510        3.8403780        1.0232130
C       -2.3350450        5.1643230        1.7578210
H       -2.9405200        3.3359600        0.8146450
H       -1.4499490        3.1785100        1.7154590
H       -2.6825680        5.9567080        1.0832480
H       -1.4981010        5.5686570        2.3375620
H       -3.1508750        4.9649730        2.4706730
H        3.3729040        2.3380720       -0.5922200
H        0.7449410        2.2394310        2.8448350
C        5.3611230        1.5903570        3.5554470
O        5.0355610        1.4166750        4.9038990
O        6.5369740        1.5291990        3.1283030
C        6.1607560        1.1330180        5.8210870
H        5.6950620        1.0283650        6.8069340
H        6.6701510        0.2053490        5.5263500
H        6.8824490        1.9614920        5.8117740
H       -3.2095920        0.9918060        0.3826450
H       -1.6218740        2.2085070       -3.4542950
