69
Mol_000358_2D_DFT last geometry from G09 out file
 Ru        0.1474520       -0.1857990        0.4651690
 C       -1.4625210       -0.9367930        0.0720540
 Cl        0.0174840       -0.3789170        2.8640300
 Cl        1.2823310       -0.7391770       -1.5719600
 H       -2.3820020       -0.4403750       -0.2467580
 H       -1.4924650       -2.0425100        0.1617780
 C       -0.1535260        1.6777330        0.1833050
 N        0.8961670        2.6291560        0.3064750
 N       -1.3304110        2.4097200       -0.1148390
 C        2.1680000        2.3443120        0.9672410
 C        0.4423010        3.9366630       -0.1203520
 C        3.4319630        2.1638770        0.3148010
 C        2.1171900        2.2473550        2.3808780
 C        4.5442390        1.8011060        1.1098990
 C        4.4853250        1.6379450        2.5266680
 H        5.4905710        1.6679430        0.5946270
 C        3.2296210        1.9041300        3.1526110
 H        3.1029200        1.8198280        4.2280460
 C       -1.1015900        3.8282340        0.1265960
 C       -2.4769040        1.9133880       -0.8539750
 C       -3.8219970        1.9056150       -0.3491280
 C       -2.2413370        1.5388270       -2.1973510
 C       -4.8591390        1.5524500       -1.2544170
 C       -4.6281750        1.1982900       -2.6159490
 H       -5.8695250        1.5178210       -0.8633710
 C       -3.2714210        1.1737800       -3.0687980
 H       -3.0172410        0.9064810       -4.0902930
 N       -5.6857070        0.8661780       -3.4698900
 C       -5.4150260        0.4201800       -4.8451820
 C       -7.0765400        0.9444390       -3.0035950
 H       -6.3574370        0.1458380       -5.3329240
 H       -4.7578320       -0.4656850       -4.8648960
 H       -4.9403090        1.2121670       -5.4503640
 H       -7.3200090        1.9500190       -2.6206980
 H       -7.2909990        0.2121570       -2.2040530
 H       -7.7552490        0.7347960       -3.8382540
 Cl        0.7102300        4.1834020       -2.0284590
 Cl        1.2863100        5.3495800        0.6924830
 Cl       -2.1549100        4.9654160       -0.8379580
 Cl       -1.4322270        4.2746690        1.9955840
 N        3.6146340        2.3673900       -1.1048800
 C        4.1074460        3.7152790       -1.4728310
 C        4.3264250        1.2996020       -1.8402720
 H        5.1909540        3.8461380       -1.2542980
 H        3.5566750        4.4903970       -0.9340750
 H        3.9530810        3.8755350       -2.5495790
 H        3.9573070        0.3193790       -1.5264980
 H        5.4322640        1.3279730       -1.7190360
 H        4.1089180        1.4128440       -2.9133190
 H        1.1677650        2.4175930        2.8816470
 N        5.6076640        1.2581740        3.2674140
 C        5.5237070        1.1443070        4.7315260
 C        6.8794090        0.9582130        2.5946630
 H        6.5006030        0.8507340        5.1323200
 H        4.7887020        0.3816300        5.0416090
 H        5.2425920        2.1025100        5.2013270
 H        7.6126860        0.6159920        3.3337820
 H        7.3012470        1.8452300        2.0891690
 H        6.7634400        0.1584830        1.8434550
 N       -4.1426360        2.2674800        0.9833130
 C       -5.4700450        2.8265030        1.2766750
 C       -3.5552900        1.5176680        2.1120950
 H       -6.2633490        2.0594830        1.4042280
 H       -5.7760970        3.5187210        0.4821360
 H       -5.4084550        3.3960290        2.2160190
 H       -2.5262790        1.2253560        1.9076410
 H       -4.1381330        0.5999250        2.3353180
 H       -3.5467620        2.1468190        3.0122020
 H       -1.2182760        1.5557750       -2.5690310
