83
Mol_000355_2D_DFT last geometry from G09 out file
 Ru        0.6211490       -0.2146760       -0.5212290
 C       -0.5613710       -0.9451910       -1.6911970
 Cl       -0.2244660       -1.1567340        1.5310600
 Cl        2.4729650        0.1361460       -2.0700090
 H       -1.4246540       -0.4828380       -2.1761650
 H       -0.3721690       -2.0143770       -1.9299440
 C        0.0818420        1.6593950       -0.3523800
 N        0.7338640        2.4987340        0.5521730
 N       -0.7810170        2.4439210       -1.1183630
 C        1.7321670        2.0726930        1.5241750
 C        0.6406230        3.9538480        0.0813790
 C        2.9922210        1.6371300        1.0502690
 C        1.5217350        2.1613230        2.9475370
 C        4.0415370        1.2770240        1.9120560
 C        3.8671840        1.3622350        3.3118040
 H        4.9834190        0.9391600        1.4805390
 C        2.6143740        1.8034970        3.7884860
 H        2.4642790        1.8394950        4.8662300
 C       -0.7743980        3.9098690       -0.6276840
 C       -1.9572640        1.9353450       -1.8058620
 C       -2.9553920        1.3270300       -1.0044740
 C       -2.2031000        2.0922960       -3.2176170
 C       -4.1925160        0.9082440       -1.5158700
 C       -4.4841420        1.0997800       -2.8888960
 H       -4.9166510        0.4470130       -0.8451280
 C       -3.4849650        1.6752340       -3.6989660
 H       -3.6898370        1.7720860       -4.7632760
 C       -5.8245680        0.6732940       -3.5041000
 C       -7.0180130        1.4685520       -2.9037030
 C       -6.0582650       -0.8595000       -3.3947480
 H       -5.7847430        0.9167740       -4.5795870
 H       -6.8701470        2.5529950       -3.0190090
 H       -7.1453780        1.2582760       -1.8313400
 H       -7.9558720        1.1959180       -3.4125380
 H       -5.2327770       -1.4202460       -3.8584470
 H       -6.9922370       -1.1428600       -3.9048170
 H       -6.1374950       -1.1840700       -2.3466540
 C        1.8122800        4.2196650       -0.9121090
 H        1.7925490        3.5387380       -1.7691970
 H        2.7689290        4.0865260       -0.3921740
 H        1.7795140        5.2538210       -1.2798910
 C        0.7413660        4.9783100        1.2299530
 H        0.5444950        5.9864930        0.8375450
 H        1.7579690        4.9802940        1.6443870
 H        0.0478820        4.7651840        2.0448740
 C       -0.9173860        4.9242380       -1.7835360
 H       -0.7750170        5.9422350       -1.3916670
 H       -1.9250660        4.8734670       -2.2128330
 H       -0.2010350        4.7526930       -2.5888950
 C       -1.9514110        4.1375280        0.3621120
 H       -1.8860640        3.4864480        1.2372900
 H       -2.9069130        3.9509510       -0.1419710
 H       -1.9579760        5.1803190        0.7056010
 H        3.1538630        1.5877690       -0.0225060
 N        0.3098420        2.6361080        3.5397370
 C       -0.9347790        1.8545600        3.3722680
 C        0.3882140        3.2853210        4.8602560
 H       -1.8069960        2.5146230        3.5035350
 H       -1.0065300        1.0387150        4.1180940
 H       -0.9718980        1.3910590        2.3883620
 H        1.2565760        3.9549920        4.9092050
 H        0.4461660        2.5728950        5.7096590
 H       -0.5195550        3.8915830        5.0067610
 C        4.9724620        0.9637700        4.2994360
 C        6.2421520        1.8474630        4.1482580
 C        5.3213950       -0.5477290        4.1948100
 H        4.5809710        1.1340330        5.3170040
 H        6.7136720        1.7133640        3.1633620
 H        6.9872590        1.5825450        4.9147900
 H        5.9994250        2.9148940        4.2630130
 H        6.0597900       -0.8260270        4.9631960
 H        5.7485220       -0.7964270        3.2120150
 H        4.4259190       -1.1706840        4.3375610
 H       -2.7410280        1.1829760        0.0531140
 N       -1.2722460        2.6548900       -4.1244360
 C        0.1126860        2.1473430       -4.1974690
 C       -1.7493340        3.2185530       -5.3959480
 H        0.4351060        1.7319490       -3.2463270
 H        0.8026110        2.9600240       -4.4744170
 H        0.2060350        1.3498410       -4.9610120
 H       -2.6678870        3.8007260       -5.2447420
 H       -1.9416800        2.4549840       -6.1778230
 H       -0.9781710        3.8991620       -5.7872520
