83
Mol_000354_2D_DFT last geometry from G09 out file
 Ru       -0.0080360       -0.1028800        1.0962100
 C       -0.9057460       -1.0172750       -0.1992000
 Cl       -1.4862680        0.1980200        2.9498450
 Cl        2.1959080       -1.0070810        0.8309100
 H       -1.1326580       -0.6567100       -1.2066190
 H       -1.1504480       -2.0748290        0.0217270
 C       -0.1950500        1.7249860        0.4273700
 N        0.7270030        2.7438600        0.6872290
 N       -1.3311950        2.3292670       -0.1467420
 C        2.0500420        2.5238490        1.2738540
 C        0.2180300        4.1479730        0.2514730
 C        3.2326480        2.4096270        0.4576890
 C        2.2350360        2.3933310        2.6956450
 C        4.4909040        2.2570960        1.0920070
 C        4.6456430        2.1707990        2.4845720
 H        5.3798270        2.1829830        0.4743200
 C        3.4944820        2.2126050        3.2879410
 H        3.5784630        2.1015340        4.3656200
 C       -1.3459430        3.8528880        0.1457830
 C       -2.3277410        1.7266680       -1.0173460
 C       -3.6528170        1.3455540       -0.6119480
 C       -2.0478350        1.6317380       -2.4243550
 C       -4.5797910        0.9335040       -1.6064850
 C       -4.2792610        0.8880590       -2.9787650
 H       -5.5779220        0.6420770       -1.2962840
 C       -2.9836870        1.2499560       -3.3927520
 H       -2.7153480        1.2271950       -4.4465510
 C       -5.2666080        0.4683830       -4.0255980
 O       -6.5066770        0.1545160       -3.4745410
 O       -5.0198120        0.4041660       -5.2504900
 C       -7.5616980       -0.2785430       -4.4207690
 H       -8.4348850       -0.4751450       -3.7900510
 H       -7.7707420        0.5173940       -5.1482070
 H       -7.2464560       -1.1861540       -4.9528930
 C        0.8234170        4.6091660       -1.1007490
 H        1.8931420        4.7875720       -0.9903060
 H        0.3744180        5.5698770       -1.3826400
 H        0.6702490        3.9121430       -1.9244220
 C        0.5906230        5.2468740        1.2781260
 H        1.6804840        5.3853610        1.2979220
 H        0.2574470        5.0255640        2.2893610
 H        0.1517820        6.2015520        0.9552930
 C       -2.0627340        4.6594650       -0.9630810
 H       -3.1326140        4.4162510       -0.9805520
 H       -1.6611030        4.5002170       -1.9669350
 H       -1.9824980        5.7305340       -0.7322520
 C       -2.0916520        4.1140250        1.4822920
 H       -3.1523590        3.8828320        1.3716080
 H       -2.0228840        5.1768350        1.7484870
 H       -1.6873930        3.5244140        2.3063890
 C        3.2735320        2.4122890       -1.0837100
 C        3.7782140        1.0645120       -1.6772250
 C        4.1659560        3.5674370       -1.6361460
 H        2.2600570        2.5425910       -1.4601770
 H        3.7777780        1.1390650       -2.7753170
 H        3.1330660        0.2308360       -1.3880140
 H        4.8036020        0.8294800       -1.3563000
 H        3.9956210        3.6771430       -2.7176150
 H        5.2346200        3.3501240       -1.4945650
 H        3.9649220        4.5372790       -1.1598790
 N        1.1390040        2.4097700        3.7239800
 O        1.2425320        1.5680720        4.6860910
 O        0.1998470        3.2769920        3.6403090
 C        5.9757100        2.0132650        3.1564160
 O        7.0171840        1.9303770        2.2328770
 O        6.1494380        1.9629410        4.3940910
 C        8.3781580        1.7496420        2.7876780
 H        9.0317400        1.7084730        1.9099640
 H        8.6416950        2.5952000        3.4375460
 H        8.4328380        0.8161130        3.3638140
 C       -4.1691680        1.3173250        0.8348510
 C       -4.5910730       -0.1233010        1.2495180
 C       -5.3670220        2.2900110        1.0503500
 H       -3.3556060        1.6082470        1.5022680
 H       -4.8662630       -0.1271900        2.3135300
 H       -3.7662010       -0.8334230        1.1223130
 H       -5.4581700       -0.4826300        0.6754620
 H       -5.6121570        2.3360000        2.1218220
 H       -6.2684390        1.9493030        0.5197890
 H       -5.1515830        3.3123890        0.7093970
 N       -0.7054340        1.9258190       -2.9875640
 O        0.3013770        1.2782170       -2.5261560
 O       -0.6339630        2.7858400       -3.9441400
