85
Mol_000209_2D_DFT last geometry from G09 out file
 Ru        0.9881680       -0.6333160       -0.1900620
 C       -0.3493680       -1.5524880       -1.0052380
 Cl        0.4919940       -1.1968410        2.1039890
 Cl        2.5602900       -0.5452380       -2.0204200
 H       -1.2923240       -1.1826000       -1.4139100
 H       -0.1674190       -2.6456040       -1.0911080
 C        0.3780620        1.2175800       -0.2122140
 N        1.1390590        2.2410740        0.3571630
 N       -0.7668500        1.8079440       -0.7345610
 C        2.4053560        2.1170770        1.0660810
 C        0.5407460        3.5908470        0.1573260
 C        3.6371730        2.2459070        0.3526420
 C        2.4015430        1.9604400        2.4872080
 C        4.8439930        2.0548260        1.0654950
 C        4.8715040        1.7874010        2.4506590
 H        5.7853760        2.1099930        0.5155790
 C        3.6411710        1.7784340        3.1422670
 H        3.6392280        1.6142720        4.2215130
 C       -0.8377570        3.2746470       -0.4572580
 C       -1.8817610        1.2154990       -1.4464450
 C       -3.0294240        0.7737910       -0.7194300
 C       -1.8472550        1.1505590       -2.8731080
 C       -4.1194780        0.2431790       -1.4496990
 C       -4.1151120        0.1516050       -2.8586850
 H       -4.9872040       -0.1229110       -0.8977010
 C       -2.9684070        0.6082090       -3.5448180
 H       -2.9350770        0.5288620       -4.6331880
 C       -5.3100570       -0.4080320       -3.6132320
 H       -5.8659600       -1.1386990       -3.0085970
 H       -5.0048720       -0.9027220       -4.5464780
 H       -6.0162930        0.3947380       -3.8858350
 H        1.1707420        4.1907440       -0.5151630
 H        0.4630100        4.1211870        1.1148910
 H       -1.0223510        3.8279480       -1.3868830
 H       -1.6646180        3.4874390        0.2357460
 C        3.7281590        2.6356550       -1.1197540
 C        4.2460960        4.0886130       -1.3374850
 H        4.4103300        1.9419420       -1.6325240
 H        2.7591120        2.5163700       -1.6153050
 C        4.3505020        4.4700650       -2.8338850
 H        3.5826650        4.8054170       -0.8227210
 H        5.2368780        4.2006640       -0.8671610
 C        4.8779720        5.9035630       -3.0658530
 H        3.3593440        4.3646200       -3.3097010
 H        5.0124740        3.7498740       -3.3456050
 H        4.9390950        6.1357060       -4.1409270
 H        5.8854610        6.0316950       -2.6386070
 H        4.2199020        6.6538840       -2.5982440
 C        1.1401590        2.0312870        3.3427680
 C        1.0445460        3.3357700        4.1891150
 H        1.1217180        1.1700490        4.0263760
 H        0.2429360        1.9374820        2.7217850
 C       -0.2282560        3.3859420        5.0632140
 H        1.0693340        4.2169160        3.5250060
 H        1.9323200        3.4198600        4.8365890
 H       -0.2641940        2.5353120        5.7621820
 H       -0.2636360        4.3120830        5.6584760
 H       -1.1418490        3.3476690        4.4482870
 C        6.1795960        1.5097010        3.1720320
 H        6.1454240        1.8417910        4.2198300
 H        7.0284460        2.0094140        2.6834750
 H        6.3980920        0.4283510        3.1801310
 C       -3.1224680        0.8061960        0.8047070
 C       -4.1758110        1.8093310        1.3594550
 H       -3.3924940       -0.2026290        1.1592920
 H       -2.1446360        1.0243710        1.2476100
 C       -4.2819620        1.7739850        2.9031030
 H       -3.9239770        2.8331230        1.0328800
 H       -5.1644580        1.5861980        0.9253970
 C       -5.3192980        2.7692080        3.4686990
 H       -3.2926370        1.9864010        3.3442700
 H       -4.5446010        0.7509080        3.2243050
 H       -6.3285140        2.5594320        3.0792960
 H       -5.0672950        3.8078640        3.1998660
 H       -5.3665220        2.7106860        4.5674860
 C       -0.6523460        1.6077540       -3.7062170
 C       -0.9149670        2.8970300       -4.5391310
 H       -0.3823230        0.7991420       -4.4053840
 H        0.2273550        1.7598970       -3.0721640
 C        0.2955090        3.2975660       -5.4110380
 H       -1.1728310        3.7305440       -3.8636810
 H       -1.7948040        2.7461870       -5.1857550
 H        0.5498040        2.5013910       -6.1284720
 H        0.0836320        4.2129570       -5.9857490
 H        1.1900940        3.4850120       -4.7964910
