79
Mol_000208_2D_DFT last geometry from G09 out file
 Ru        0.0744030       -0.9055020        0.3187180
 C       -1.3041440       -1.6241130       -0.6270490
 Cl       -0.8641250       -1.0360090        2.5170330
 Cl        1.8714920       -1.5813660       -1.1090080
 H       -2.0306430       -1.1210040       -1.2667310
 H       -1.3947870       -2.7259600       -0.5347340
 C       -0.1078440        0.9682290        0.0392790
 N        0.8378410        1.8877540        0.5929030
 N       -1.1180150        1.7553900       -0.5763700
 C        2.2303520        1.5844540        0.9794380
 C        0.3370390        3.2299080        0.5590840
 C        3.2031440        1.5410930       -0.0716380
 C        2.5910350        1.4007790        2.3546700
 C        4.5307470        1.1972720        0.2741880
 C        4.8982430        0.9527010        1.6059580
 H        5.2770230        1.1171510       -0.5164000
 C        3.9430160        1.0760030        2.6273840
 H        4.2498550        0.9184200        3.6594080
 C       -0.8339210        3.1616690       -0.4743320
 C       -2.3654380        1.3182270       -1.2123490
 C       -3.5272390        1.1713410       -0.3902250
 C       -2.3923540        1.0886670       -2.6256640
 C       -4.7240350        0.7515150       -1.0212000
 C       -4.7784560        0.5154650       -2.4049570
 H       -5.6183110        0.6089840       -0.4145730
 C       -3.6275470        0.6891010       -3.1927760
 H       -3.6851270        0.5064260       -4.2648320
 H       -5.7134250        0.1963440       -2.8685380
 F        1.3132110        4.1906790        0.2352330
 F       -0.1904750        3.6736020        1.8268130
 F       -0.4185150        3.7480590       -1.7225210
 F       -1.9518350        3.9334360       -0.0979640
 C        2.9212310        1.8535710       -1.5397420
 C        3.6570790        3.1219740       -2.0642980
 H        3.2384990        0.9894990       -2.1427650
 H        1.8505340        1.9750210       -1.7266010
 C        3.3554220        3.4088500       -3.5551160
 H        3.3675320        3.9942970       -1.4588390
 H        4.7447970        2.9985350       -1.9363480
 C        4.1066620        4.6443240       -4.0991510
 H        2.2694560        3.5600170       -3.6843970
 H        3.6224140        2.5238820       -4.1600560
 H        3.8655060        4.8210130       -5.1593460
 H        5.1982100        4.5151050       -4.0215240
 H        3.8364400        5.5532180       -3.5384710
 C        1.6447790        1.6180260        3.5486590
 C        1.9284120        3.0023820        4.2096690
 C        1.7362190        0.4974420        4.6212140
 H        0.6119560        1.6297660        3.1833660
 H        1.8470870        3.8272260        3.4908340
 H        2.9373430        3.0307070        4.6480090
 H        1.2030750        3.1852590        5.0173360
 H        0.9335960        0.6351700        5.3611410
 H        2.6908580        0.5228910        5.1669680
 H        1.6133940       -0.4986780        4.1793660
 H        5.9265430        0.6808080        1.8499900
 C       -3.5531350        1.4076140        1.1183360
 C       -4.5266970        2.5319360        1.5768860
 H       -3.8525280        0.4671210        1.6092960
 H       -2.5542070        1.6344950        1.5013730
 C       -4.4834660        2.7557370        3.1077680
 H       -4.2711590        3.4712270        1.0633870
 H       -5.5583910        2.2810980        1.2797570
 C       -5.4582610        3.8534010        3.5883080
 H       -3.4556690        3.0261100        3.4058010
 H       -4.7164470        1.8078330        3.6243880
 H       -5.3963900        3.9876800        4.6797430
 H       -6.5018200        3.5992710        3.3414640
 H       -5.2295310        4.8232860        3.1185380
 C       -1.1731050        1.2370930       -3.5538000
 C       -1.3885020        2.3758500       -4.5927510
 C       -0.8069880       -0.0947880       -4.2704630
 H       -0.3051510        1.5167330       -2.9476570
 H       -2.2046290        2.1397260       -5.2914010
 H       -0.4722570        2.5177610       -5.1861720
 H       -1.6250230        3.3287690       -4.1012830
 H        0.0900000        0.0547330       -4.8903380
 H       -1.6136620       -0.4423000       -4.9322900
 H       -0.5805910       -0.8940000       -3.5526340
