98
Mol_000204_2D_DFT last geometry from G09 out file
 Ru       -0.4309790       -1.2060480        0.3122840
 C        0.9740880       -1.7044720        1.3490960
 Cl        0.4852550       -1.6522310       -1.8918700
 Cl       -2.1743870       -1.3574620        1.9723430
 H        1.7146220       -1.0808730        1.8559690
 H        1.0652450       -2.8020470        1.5011900
 C       -0.2506260        0.7206500        0.1451970
 N        0.8089140        1.5667410        0.4334400
 N       -1.2230430        1.4810040       -0.5056720
 C        0.5145600        2.9696520        0.0281870
 C        1.9124540        1.3637490        1.3476800
 C       -0.6694270        2.8363490       -0.9652550
 H        1.4020200        3.4227130       -0.4242090
 H        0.2375760        3.5644820        0.9152640
 C       -0.1919390        2.7336280       -2.4513540
 C       -1.6895550        3.9950900       -0.8274940
 C        0.3414210        4.0731190       -3.0172580
 H        0.5707930        1.9468960       -2.5402520
 H       -1.0490120        2.4175200       -3.0627000
 C       -0.6873820        5.2138480       -2.8504830
 H        1.2847470        4.3563400       -2.5197330
 H        0.5884670        3.9341150       -4.0826210
 C       -1.1406020        5.3360480       -1.3782400
 H       -1.5660460        5.0112130       -3.4873630
 H       -0.2581350        6.1684970       -3.1962180
 H       -1.9256940        6.1043860       -1.2844800
 H       -0.2943440        5.6827080       -0.7602310
 H       -1.9740930        4.1162630        0.2258860
 H       -2.6014290        3.7342760       -1.3850010
 C        1.6572610        1.5070460        2.7334670
 C        3.2340830        1.1075270        0.8854600
 C        2.6944730        1.3930000        3.6744250
 C        4.0230810        1.1362180        3.2507080
 H        2.4694850        1.4903690        4.7380560
 C        4.2558310        0.9938490        1.8637300
 H        5.2696990        0.7707070        1.5240070
 C       -2.5008160        0.9635070       -0.9823340
 C       -2.5291270        0.2421650       -2.2008060
 C       -3.7174780        1.2007420       -0.2667730
 C       -3.7369060       -0.2375490       -2.7356570
 C       -4.9599080        0.0045370       -2.0695740
 H       -3.7199880       -0.8080540       -3.6659910
 C       -4.9146500        0.7148690       -0.8473890
 H       -5.8514820        0.8781510       -0.3159180
 C       -3.7606460        1.9439510        1.0700380
 C       -4.8106280        1.4508040        2.1000570
 H       -2.7686830        1.8873000        1.5349060
 H       -3.9549840        3.0140240        0.8778820
 C       -4.6342340        2.1251430        3.4821730
 H       -5.8318030        1.6595300        1.7389740
 H       -4.7230660        0.3610790        2.2146340
 C       -5.6938570        1.6815440        4.5152170
 H       -4.6764460        3.2238760        3.3670630
 H       -3.6289210        1.8882700        3.8715330
 H       -5.5325310        2.1726960        5.4881390
 H       -5.6545110        0.5930600        4.6786100
 H       -6.7124760        1.9335520        4.1779260
 C       -6.2851730       -0.4708260       -2.6515240
 C       -6.9529130        0.5683170       -3.5996720
 H       -6.1289340       -1.4071260       -3.2116870
 H       -6.9882100       -0.7049720       -1.8355510
 C       -8.2974670        0.0776100       -4.1877980
 H       -7.1154360        1.5099050       -3.0477810
 H       -6.2576170        0.8063790       -4.4226420
 C       -8.9645130        1.1049810       -5.1293420
 H       -8.9900380       -0.1634410       -3.3619790
 H       -8.1318100       -0.8661090       -4.7369590
 H       -9.9168090        0.7199370       -5.5272490
 H       -8.3145460        1.3410960       -5.9871790
 H       -9.1790980        2.0488330       -4.6027700
 H        0.6332670        1.6806100        3.0664080
 C        3.5828310        0.9187620       -0.5865240
 C        4.3933090        2.0943260       -1.2066530
 H        4.1825450       -0.0010750       -0.6900930
 H        2.6710140        0.7540940       -1.1714370
 C        4.7565730        1.8521730       -2.6914840
 H        3.8157100        3.0307380       -1.1206770
 H        5.3190140        2.2518640       -0.6278700
 C        5.5530680        3.0142410       -3.3251850
 H        3.8324270        1.6827630       -3.2710660
 H        5.3431710        0.9204230       -2.7733860
 H        5.7951700        2.8008260       -4.3782280
 H        6.5021990        3.1866950       -2.7925520
 H        4.9794520        3.9550020       -3.2985280
 C        5.1641300        1.0383130        4.2555000
 C        5.8220890        2.4126090        4.5776060
 H        4.7948450        0.5975710        5.1959820
 H        5.9419940        0.3580330        3.8722290
 C        6.9786790        2.3066100        5.6000600
 H        6.1980010        2.8614980        3.6424670
 H        5.0519350        3.1011050        4.9649120
 C        7.6348730        3.6674770        5.9229150
 H        7.7467900        1.6147520        5.2113880
 H        6.5996210        1.8542590        6.5335210
 H        8.4517040        3.5512840        6.6526420
 H        6.9033340        4.3725490        6.3491500
 H        8.0583590        4.1316190        5.0178060
 H       -1.5941830        0.0300280       -2.7115340
