47
M00000380_2D_DFT last geometry from G09 out file
 Ru        0.0397780        0.0500190        0.5619450
 C       -1.1300630       -0.7448540       -0.5828810
 Cl       -1.0951290        0.0974420        2.6657780
 Cl        2.0989820       -0.5524520       -0.5248600
 H       -1.6708680       -0.3079510       -1.4260450
 H       -1.2463400       -1.8389310       -0.4393040
 C       -0.1901940        1.9429750        0.2045240
 N        0.7581130        2.8920440        0.5924110
 N       -1.2949120        2.6742430       -0.2437050
 C        0.3396600        4.2847350        0.2769580
 C        2.1261770        2.6698000        0.9495380
 C       -1.1925830        4.1612970        0.0909420
 H        0.8431500        4.6249730       -0.6413000
 H        0.6045530        4.9536480        1.1030590
 C       -1.9735860        4.5665320        1.3818570
 C       -1.7568150        5.1494050       -0.9632950
 C       -2.0528170        6.1175150        1.3153580
 H       -1.4906120        4.1890580        2.2915310
 H       -2.9793490        4.1342780        1.3487710
 C       -1.8678760        6.4956380       -0.1957730
 H       -3.0149490        6.4743230        1.7098560
 H       -1.2690780        6.5851940        1.9294750
 H       -0.9556530        7.0954120       -0.3345340
 H       -2.7038840        7.0997440       -0.5762990
 H       -2.7574630        4.8186020       -1.2764830
 H       -1.1327510        5.2175590       -1.8625050
 C        3.1189770        2.6061290       -0.0619130
 C        2.5978600        2.6417340        2.2873410
 C        4.4837580        2.4414200        0.1995160
 C        4.8976610        2.3570150        1.5432550
 H        5.1868690        2.3679120       -0.6279180
 C        3.9616370        2.4665130        2.5917610
 H        4.2826960        2.4254230        3.6306270
 C       -2.4153930        2.1525130       -0.9585180
 C       -2.4148300        2.0221140       -2.3772260
 C       -3.6243480        1.7782500       -0.3147780
 C       -3.5289790        1.5515500       -3.0967160
 C       -4.7013150        1.1934930       -2.3991360
 H       -3.4765420        1.4630860       -4.1799630
 C       -4.7552050        1.3029060       -0.9972210
 H       -5.6416920        1.0242810       -0.4300250
 F        2.7068420        2.7358310       -1.3922990
 Cl        1.4469170        2.8760310        3.6606990
 H        5.9527010        2.2148770        1.7774550
 Cl       -0.9251010        2.4310260       -3.3202590
 F       -3.7123750        1.8750110        1.0737860
 H       -5.5669290        0.8261350       -2.9502870
