67
M00000036_2D_DFT last geometry from G09 out file
Ru        0.0715740       -0.0609750        0.1483330
C       -1.3459650       -0.7637290       -0.7468540
Cl       -0.6769720       -0.4350350        2.4034760
Cl        1.7937420       -0.4438610       -1.4855710
H       -2.1583080       -0.2471780       -1.2604650
H       -1.3675050       -1.8741730       -0.7580560
C       -0.1449460        1.8544290        0.0032720
N        0.7537280        2.7313870        0.5806890
N       -1.1404710        2.6685090       -0.6429380
C        0.3982110        4.1508080        0.3674090
C        1.9567040        2.4212440        1.3487390
C       -0.8689440        4.0661280       -0.4966550
H        1.2051250        4.6836600       -0.1461900
C        3.2048590        2.3380670        0.6648630
C        1.8633310        2.3446230        2.7690760
C        4.3656630        2.0012130        1.4187890
C        4.2659740        1.7782350        2.8235790
C        3.0362630        2.0129120        3.5057650
C       -2.3172480        2.1910450       -1.3736030
C       -3.5348330        1.9977850       -0.6577880
C       -2.2135890        1.9589320       -2.7761960
C       -4.7055220        1.6585590       -1.3961410
C       -4.6386720        1.4793180       -2.8090510
C       -3.3979320        1.6209580       -3.4966910
H        0.2005640        4.6501540        1.3225530
Cl       -0.5818070        5.0123250       -2.1549530
Cl       -2.2799690        5.0842200        0.3115320
C        3.3195720        2.6371560       -0.8230630
H        2.3469650        2.7829600       -1.2963710
H        3.8072940        1.8166760       -1.3623810
H        3.9177000        3.5487500       -0.9883690
C        0.5623310        2.6445420        3.4996040
H        0.2967260        1.8401890        4.1953610
H       -0.2830990        2.7539020        2.8180110
H        0.6527690        3.5756280        4.0840350
C        5.7165750        1.8683510        0.7234100
H        6.5351180        2.2513660        1.3468590
H        5.7498520        2.4139640       -0.2246490
H        5.9453550        0.8131580        0.4943610
C        5.4871710        1.3032210        3.6046020
H        6.0812440        2.1489570        3.9932590
H        6.1550860        0.6975490        2.9814680
H        5.2011350        0.6858730        4.4642020
C        2.9743960        1.8976880        5.0252570
H        2.1560980        2.4876300        5.4507120
H        3.9022510        2.2430560        5.4987470
H        2.8141400        0.8521600        5.3409020
C       -3.5951060        2.0612980        0.8621070
H       -2.6112400        2.1909580        1.3134520
H       -4.0112540        1.1272890        1.2672070
H       -4.2296630        2.8877380        1.2112620
C       -0.8713790        1.9762890       -3.4949500
H       -0.7056400        1.0227160       -4.0174690
H       -0.0343250        2.1107950       -2.8099670
H       -0.8176360        2.7803390       -4.2418330
C       -6.0400770        1.4797860       -0.6796900
H       -6.3039220        0.4133820       -0.5719160
H       -6.8587700        1.9575270       -1.2351750
H       -6.0353360        1.9129420        0.3244860
C       -5.9062360        1.1100950       -3.5726520
H       -6.5241550        0.3975780       -3.0108280
H       -5.6919110        0.6562510       -4.5448970
H       -6.5324260        1.9999980       -3.7586340
C       -3.3415270        1.4119560       -5.0075930
H       -2.3897340        1.7337750       -5.4376670
H       -4.1335910        1.9794980       -5.5170870
H       -3.4775090        0.3512610       -5.2784350
