94
M00000038_2D_DFT last geometry from G09 out file
Ru        0.5020600       -0.1040480       -0.4051670
C       -0.6741120       -1.0592420       -1.4081110
Cl        0.1971920       -1.3130580        1.6665120
Cl        1.9854180        0.5450700       -2.2050580
H       -1.6732290       -0.7842260       -1.7518680
H       -0.3068610       -2.0646760       -1.7066660
C       -0.3829900        1.6099130       -0.0692500
N        0.2603840        2.5797680        0.7147590
N       -1.5697080        2.1543090       -0.5335360
C       -0.3802700        3.9147690        0.5282710
C        1.5735370        2.3906260        1.3422480
C       -1.8457000        3.5944770        0.0310580
H        0.1452150        4.4352520       -0.2822750
C        2.7527780        2.8031250        0.6529820
C        1.6284530        1.8753890        2.6718240
C        4.0181130        2.5822200        1.2658630
C        4.0958270        1.9374080        2.5344790
C        2.9056660        1.6394030        3.2590020
C       -2.6062600        1.4435670       -1.2799700
C       -3.5675160        0.6348580       -0.5911290
C       -2.6488470        1.5740520       -2.7031460
C       -4.6708870        0.1062590       -1.3235970
C       -4.7827220        0.3281110       -2.7272960
C       -3.7587810        1.0348800       -3.4212220
C       -0.2184610        4.9060940        1.7018970
F       -0.8473440        6.1419770        1.3721500
F       -0.7321470        4.5140680        2.9498910
F        1.1343440        5.2441920        1.9228200
C       -2.3501550        4.5988180       -1.0627900
C       -1.3497570        5.3569480       -1.9735270
H       -3.0749450        4.0573340       -1.6862460
H       -2.9280130        5.3686550       -0.5391780
C       -2.0843110        6.1804670       -3.0630980
H       -0.7540240        6.0612280       -1.3711250
H       -0.6419330        4.6743160       -2.4622610
C       -1.1265840        7.0008600       -3.9550330
H       -2.8034490        6.8638260       -2.5781040
H       -2.6830920        5.5034680       -3.6966510
H       -1.6840350        7.5698950       -4.7154000
H       -0.4120000        6.3488660       -4.4823430
H       -0.5443250        7.7215650       -3.3591520
C       -2.9441360        3.4334450        1.1506040
C       -3.7041250        4.6608610        1.7288540
H       -3.7112210        2.7892250        0.7085930
H       -2.5040050        2.8689000        1.9813530
C       -4.5758040        4.2496830        2.9439700
H       -3.0271770        5.4624880        2.0437640
H       -4.3688180        5.0891850        0.9615640
C       -5.4057270        5.4198120        3.5165360
H       -3.9244490        3.8441580        3.7372250
H       -5.2567590        3.4310050        2.6505470
H       -6.0057590        5.0941150        4.3807010
H       -6.0986880        5.8269700        2.7626900
H       -4.7551570        6.2428500        3.8525220
C        2.6911700        3.5100320       -0.6922930
H        2.8263010        4.5980300       -0.5645920
H        1.7495940        3.3313650       -1.2132990
H        3.4767540        3.1548730       -1.3669640
C        0.3710510        1.5959040        3.4794850
H        0.3662050        0.5710220        3.8667650
H       -0.5323360        1.7172830        2.8823150
H        0.3024920        2.2859630        4.3351730
C        5.2862010        3.0417270        0.5525170
H        5.6150960        2.3080480       -0.2038840
H        6.1183700        3.1931730        1.2484120
H        5.1309520        3.9936120        0.0291920
C        5.4562130        1.5673420        3.1192860
H        6.1710690        1.2970560        2.3325840
H        5.3849730        0.7072550        3.7941840
H        5.8996810        2.3991790        3.6941640
C        2.9972920        1.0600310        4.6672130
H        2.1020700        1.2746960        5.2592580
H        3.8541790        1.4647800        5.2205870
H        3.1087380       -0.0378800        4.6408800
C       -3.3871600        0.2225490        0.8654060
H       -4.1846250        0.6090320        1.5172300
H       -2.4311600        0.5449220        1.2739190
H       -3.4064410       -0.8734320        0.9481160
C       -1.4803130        2.1751580       -3.4709950
H       -1.7567490        3.0898260       -4.0138590
H       -1.1100220        1.4564450       -4.2162890
H       -0.6402540        2.4015640       -2.8161290
C       -5.7356710       -0.7245950       -0.6143110
H       -5.5927630       -1.8040410       -0.7961460
H       -6.7440490       -0.4730720       -0.9697190
H       -5.7284280       -0.5788440        0.4697270
C       -5.9826730       -0.2450270       -3.4740210
H       -6.1624900       -1.2944850       -3.2000960
H       -5.8613990       -0.2102250       -4.5598720
H       -6.9054340        0.3086720       -3.2303870
C       -3.8508330        1.2089550       -4.9356850
H       -4.8155550        1.6501300       -5.2282730
H       -3.7642000        0.2439870       -5.4617760
H       -3.0678510        1.8603100       -5.3313020
