68
Mol_000060_2D_DFT last geometry from G09 out file
Ru       -0.4476320       -0.0670290        0.2148940
C        0.3596760       -0.3020510        1.8268930
Cl        1.2483760       -0.7722260       -1.3415590
Cl       -2.7256420       -0.5055010        0.8648040
H        0.6879930        0.4632000        2.5353040
H        0.4933900       -1.3558410        2.1465420
C       -0.2524970        1.8671050       -0.0435710
N        0.7401230        2.7262580        0.4086680
N       -1.0979330        2.6201120       -0.8629300
C        0.5821380        4.1166170       -0.0956250
C        1.8253190        2.5126210        1.3444910
C       -0.6360870        4.0750220       -1.0646680
H        1.5047900        4.4168840       -0.6025810
H        0.4073430        4.8020790        0.7450910
C       -0.2192410        4.3344190       -2.5460270
C       -1.7247640        5.1152000       -0.6662130
C        0.2172400        5.7975570       -2.8108870
H        0.5925500        3.6522360       -2.8208160
H       -1.0772860        4.1058500       -3.1949180
C       -0.8674650        6.8105300       -2.3854600
H        1.1554740        6.0195920       -2.2742490
H        0.4446090        5.9088120       -3.8841520
C       -1.2773790        6.5782620       -0.9153210
H       -1.7528980        6.6972680       -3.0348630
H       -0.5022000        7.8413190       -2.5226600
H       -2.1065950        7.2495450       -0.6382210
H       -0.4337350        6.8405140       -0.2537000
H       -1.9915710        4.9828200        0.3886660
H       -2.6310040        4.9337260       -1.2611140
C        1.5887040        2.8390210        2.7179560
C        3.1261990        2.0787360        0.9369480
C        2.6383850        2.6915410        3.6557690
C        3.9045170        2.2216330        3.2666060
H        2.4485050        2.9363010        4.7022790
C        4.1394280        1.9152870        1.9181660
H        5.1103000        1.5452330        1.5942670
C       -2.2810200        2.0974820       -1.5325320
C       -2.1385370        1.4161170       -2.7829140
C       -3.5996850        2.3239240       -1.0068790
C       -3.2998560        0.9562600       -3.4559560
C       -4.5857130        1.1906380       -2.9527320
H       -3.1749770        0.4164840       -4.3965180
C       -4.7286310        1.8808840       -1.7397660
H       -5.7168710        2.0734820       -1.3283460
C       -3.9989960        2.9740380        0.2952890
O       -3.0987790        2.8381020        1.3443110
O       -5.1097980        3.5385830        0.4543780
C       -3.6321080        3.2232430        2.6749020
H       -4.5852240        2.7123270        2.8599140
H       -2.8708050        2.8904390        3.3851990
H       -3.7863120        4.3100630        2.7316960
H       -5.4662690        0.8362210       -3.4896100
C        0.2403250        3.3327800        3.2155240
H       -0.5854180        2.9599190        2.6055090
H        0.1955410        4.4347990        3.2051030
H        0.0748960        3.0173550        4.2551100
C        3.6081170        1.7685900       -0.4585170
O        2.9893150        2.5145960       -1.4605940
O        4.5588690        0.9924940       -0.6961650
C        3.4824890        2.2436750       -2.8355690
H        2.9271380        2.9388690       -3.4735900
H        4.5624630        2.4322120       -2.8968520
H        3.2736100        1.2011270       -3.1044150
H        4.6990540        2.0969520        4.0031770
C       -0.8140690        1.1496150       -3.4802030
H        0.0554690        1.3815310       -2.8685760
H       -0.7532160        1.7326710       -4.4131960
H       -0.7380350        0.0885740       -3.7537870
