83
Mol_000039_2D_DFT last geometry from G09 out file
 Ru        0.0768680        0.4675140        0.3159180
 C       -1.2761140       -0.3392820       -0.5874430
 Cl       -0.8692750        0.3274040        2.5344220
 Cl        1.8893510       -0.0447830       -1.1963710
 H       -2.0763060        0.1085000       -1.1802560
 H       -1.2835870       -1.4473840       -0.5032480
 C       -0.1341000        2.3668080       -0.0745850
 N        0.7264210        3.3362090        0.4733760
 N       -1.0406050        3.0491260       -0.8944110
 C        0.5421570        4.6415670       -0.2450340
 C        1.8293640        3.1188940        1.4054450
 C        0.8043580        5.9853240        0.4492390
 C       -0.9229910        4.5326260       -0.6648170
 H        1.1705010        4.6113030       -1.1532790
 C        0.4739070        7.0989580       -0.5886250
 H        1.8496990        6.0735340        0.7786420
 H        0.1664710        6.0969830        1.3378020
 C       -0.9425800        6.9564590       -1.2145180
 H        1.2301220        7.0764170       -1.3921310
 H        0.5617400        8.0848170       -0.1047300
 C       -1.2296130        5.5355690       -1.7858690
 H       -1.7019630        7.1951960       -0.4499560
 H       -1.0638070        7.7010530       -2.0175020
 H       -2.2758180        5.4676620       -2.1165140
 H       -0.5922540        5.3435040       -2.6609370
 H       -1.5636820        4.7862240        0.1988660
 C        1.5637320        3.1912630        2.8125770
 C        3.1618680        2.9547120        0.9027240
 C        2.6418100        2.9593010        3.6994350
 C        3.9404820        2.7139790        3.2212910
 H        2.4687820        2.9754390        4.7725420
 C        4.1995180        2.7376220        1.8405450
 H        5.2171630        2.5828280        1.4902050
 C       -2.1406320        2.5228350       -1.6789410
 C       -1.9082520        2.1492360       -3.0411670
 C       -3.4459320        2.4394930       -1.0979690
 C       -3.0085940        1.6757420       -3.7982600
 C       -4.2979750        1.5886260       -3.2440650
 H       -2.8470880        1.3589910       -4.8290720
 C       -4.5091100        1.9683600       -1.9067240
 H       -5.5055590        1.8778420       -1.4711550
 C        0.1861370        3.5877580        3.3523220
 C       -0.0743710        3.3550010        4.8594800
 H       -0.5885640        3.0573520        2.7897150
 H        0.0391390        4.6629400        3.1457520
 C       -1.5200150        3.7229570        5.2612030
 H        0.6237530        3.9534050        5.4689050
 H        0.1075920        2.2969060        5.1025950
 H       -1.7440000        4.7807520        5.0433300
 H       -2.2501880        3.1008530        4.7209930
 H       -1.6797820        3.5649890        6.3393410
 C        3.4835280        3.0885070       -0.5890050
 C        4.8233980        2.4891550       -1.0802450
 H        3.4863780        4.1658520       -0.8407580
 H        2.6778520        2.6312900       -1.1740350
 C        4.9827770        2.6074320       -2.6124810
 H        4.8744240        1.4280940       -0.7923890
 H        5.6744990        2.9985010       -0.5982930
 H        4.9496770        3.6591740       -2.9430160
 H        5.9464900        2.1866520       -2.9395630
 H        4.1843630        2.0593310       -3.1357450
 H        4.7536760        2.5265320        3.9251120
 C       -0.5270200        2.1768100       -3.6937190
 C       -0.4291410        3.0281090       -4.9913460
 H       -0.2367780        1.1410440       -3.9384620
 H        0.2222200        2.5308100       -2.9788930
 C        0.9901650        3.0079750       -5.6015420
 H       -0.7231790        4.0686840       -4.7756490
 H       -1.1456900        2.6577800       -5.7419180
 H        1.2971660        1.9828220       -5.8624380
 H        1.0345510        3.6160660       -6.5187570
 H        1.7379300        3.4068060       -4.8974440
 C       -3.7490360        2.7802390        0.3601670
 C       -4.6313260        4.0488720        0.5517550
 H       -2.8247980        2.8881140        0.9374570
 H       -4.2824220        1.9265680        0.8106500
 C       -4.9651630        4.3236970        2.0347060
 H       -5.5691970        3.9327910       -0.0154660
 H       -4.1213130        4.9263940        0.1205940
 H       -4.0531850        4.4777890        2.6325890
 H       -5.5910030        5.2240730        2.1377960
 H       -5.5146140        3.4803380        2.4821630
 H       -5.1282110        1.2133200       -3.8449110
