103
Mol_000168_2D_DFT last geometry from G09 out file
 Ru        0.3405930       -0.3386850       -0.5102950
 C       -0.8491780       -1.1765650       -1.5950570
 Cl       -0.4004430       -1.3011240        1.5852090
 Cl        2.0146170        0.1976340       -2.1984130
 H       -1.7841920       -0.8150360       -2.0264790
 H       -0.5698010       -2.2267450       -1.8347800
 C       -0.3005510        1.4928840       -0.2758420
 N        0.4054640        2.3556190        0.5573010
 N       -1.3216730        2.2121250       -0.8726460
 C        1.5253510        1.9098730        1.3872930
 C        0.0968370        3.8279820        0.2021710
 C        2.7980750        1.7511300        0.7859020
 C        1.3708150        1.6377000        2.7850550
 C        3.9204290        1.3492260        1.5289170
 C        3.8060270        1.0935480        2.9136960
 H        4.8727870        1.2256730        1.0130250
 C        2.5275900        1.2436650        3.5004310
 H        2.4273690        1.0210480        4.5611890
 C       -1.4406600        3.6376520       -0.2536700
 C       -2.3794030        1.6138000       -1.6695340
 C       -3.4342790        0.9512210       -0.9882890
 C       -2.3987520        1.6716360       -3.0940070
 C       -4.5284130        0.4056710       -1.6770360
 C       -4.6087970        0.5041910       -3.0889970
 H       -5.3103660       -0.0991460       -1.1092030
 C       -3.5316360        1.1272680       -3.7565750
 H       -3.5657220        1.1889110       -4.8455100
 C       -5.7979180       -0.0579780       -3.8794680
 C       -7.1334140        0.6428820       -3.5032380
 C       -5.9131720       -1.6021960       -3.7397720
 H       -5.6112320        0.1553410       -4.9457030
 H       -7.9536250        0.2693660       -4.1358520
 H       -7.0635710        1.7321370       -3.6439970
 H       -7.4082750        0.4553630       -2.4544790
 H       -4.9813030       -2.0990630       -4.0489540
 H       -6.7292280       -1.9845540       -4.3724510
 H       -6.1258060       -1.9012830       -2.7025580
 C        1.0990990        4.2030070       -0.9636220
 C        1.2093490        5.6543290       -1.5156550
 H        0.9320470        3.5163690       -1.8028300
 H        2.0917410        3.9493720       -0.5724210
 C        2.5159850        5.8428560       -2.3243530
 H        1.1887000        6.3934440       -0.7018180
 H        0.3642340        5.8976400       -2.1715080
 H        3.4065620        5.6941010       -1.6933930
 H        2.5772030        5.1253640       -3.1579300
 H        2.5727210        6.8570550       -2.7505440
 C        0.2529020        4.8073320        1.4049660
 C        1.6679280        5.2157730        1.9006140
 H       -0.2881120        4.3986540        2.2617340
 H       -0.2729540        5.7325730        1.1243720
 C        1.5789820        6.2440730        3.0532910
 H        2.2607590        5.6556360        1.0876740
 H        2.2244280        4.3395680        2.2515510
 H        1.0612020        7.1646530        2.7374850
 H        1.0348900        5.8350230        3.9197730
 H        2.5847020        6.5295140        3.3990530
 C       -1.8939900        4.7113940       -1.2920850
 C       -3.3858000        4.8170950       -1.7150200
 H       -1.3001290        4.5868770       -2.2020290
 H       -1.6098850        5.6881610       -0.8725810
 C       -3.6018510        5.9867910       -2.7048910
 H       -4.0337490        4.9777980       -0.8433890
 H       -3.7261490        3.8886040       -2.1861600
 H       -3.0085120        5.8545670       -3.6238390
 H       -4.6602500        6.0576220       -3.0006360
 H       -3.3151080        6.9533830       -2.2593400
 C       -2.4768570        3.5184710        0.9317470
 C       -2.9736540        4.7716550        1.7130820
 H       -2.0967360        2.7837180        1.6521220
 H       -3.3711330        3.0685090        0.4842930
 C       -4.2807220        4.4661460        2.4840450
 H       -3.1526170        5.6189600        1.0362250
 H       -2.2238240        5.1138560        2.4365460
 H       -4.1443830        3.6282390        3.1863450
 H       -4.6063780        5.3410130        3.0687230
 H       -5.1008250        4.1965210        1.7997260
 H        2.9020350        1.9080030       -0.2824800
 C        0.0220900        1.7447480        3.5003580
 C       -0.1137480        1.0085580        4.8512140
 H       -0.7494330        1.3566360        2.8262010
 H       -0.2132500        2.8087270        3.6692880
 H        0.1205410       -0.0596920        4.7471940
 H       -1.1527960        1.0893270        5.2071510
 H        0.5313510        1.4347590        5.6346560
 C        4.9993030        0.6339110        3.7615790
 C        6.1561190        1.6715100        3.7662610
 C        5.5031770       -0.7721060        3.3278250
 H        4.6448240        0.5412350        4.8022910
 H        6.9642220        1.3413830        4.4376310
 H        5.8056440        2.6556100        4.1130210
 H        6.5884250        1.8019050        2.7629420
 H        6.3063800       -1.1163340        3.9981560
 H        5.9023940       -0.7595310        2.3026540
 H        4.6886100       -1.5108710        3.3611240
 H       -3.3700630        0.8343140        0.0916500
 C       -1.2771110        2.2784700       -3.9362100
 C       -0.6827250        1.3295630       -5.0100430
 H       -0.4612980        2.6004840       -3.2832140
 H       -1.6607150        3.1811660       -4.4445210
 H       -1.4369640        0.9974160       -5.7380840
 H       -0.2307840        0.4444460       -4.5451590
 H        0.1098130        1.8523790       -5.5675970
