50
Mol_000172_2D_DFT last geometry from G09 out file
 Ru        0.1690330       -0.3996690       -0.3345460
 C        1.9423040       -0.2416430       -0.7096430
 Cl       -0.6314820       -0.7964630       -2.5682930
 Cl        0.0306290       -1.1112460        1.9418710
 H        2.4609690        0.6819580       -0.9912660
 H        2.5281980       -1.1812360       -0.7453920
 C       -0.1967470        1.4896960       -0.1839570
 N        0.7102150        2.5396510       -0.0009540
 N       -1.4365100        2.0772410       -0.4270540
 C        0.1502830        3.8339430       -0.4932230
 C        1.8797990        2.5283450        0.8141450
 C       -1.3753730        3.5896520       -0.5228340
 H        0.5364790        4.0488820       -1.4975600
 H        0.4083080        4.6379190        0.2012770
 H       -1.7856830        3.8709900       -1.5028860
 C        1.8119090        1.9527130        2.1087500
 C        3.0896490        3.2009460        0.4573490
 C        2.8991030        2.0190950        2.9957090
 C        4.0785180        2.7104500        2.6350570
 H        2.8100990        1.5556430        3.9786820
 C        4.1654360        3.3105340        1.3701360
 H        5.0594050        3.8480100        1.0612960
 C       -2.6742480        1.3920960       -0.6946660
 C       -3.1534900        1.3906060       -2.0257850
 C       -3.4667830        0.7333020        0.2911020
 C       -4.3612480        0.7623000       -2.3782240
 C       -5.1154920        0.0890910       -1.3947850
 H       -4.6890100        0.7687140       -3.4180090
 C       -4.6624820        0.0694950       -0.0652550
 H       -5.2229390       -0.4454150        0.7116720
 H       -2.5347770        1.8444190       -2.7975760
 N       -3.1442720        0.7297830        1.7554380
 O       -2.4472970        1.6928610        2.2345440
 O       -3.6321230       -0.2244290        2.4634760
 C       -2.1694870        4.3378920        0.5580210
 C       -3.5371410        4.6433290        0.3653460
 N       -1.4919930        4.7147480        1.6801700
 C       -4.2354310        5.3300300        1.3801990
 H       -4.0463810        4.3534980       -0.5540880
 C       -3.5454470        5.6983390        2.5534830
 H       -5.2908820        5.5754610        1.2550160
 C       -2.1743540        5.3750260        2.6520450
 H       -4.0461150        6.2280940        3.3639360
 H       -1.5960100        5.6531840        3.5349650
 H       -6.0425370       -0.4203690       -1.6580260
 H        0.8903470        1.4688060        2.4169760
 N        3.3342630        3.7586580       -0.8947100
 O        2.7833210        3.1849010       -1.9123390
 O        4.1305800        4.7669310       -0.9982820
 H        4.9159880        2.7809360        3.3290880
