89
Mol_000171_2D_DFT last geometry from G09 out file
 Ru        0.2526080       -0.2487650       -0.5102030
 C       -1.1752700       -1.1922250       -1.1130340
 Cl        0.2645030       -1.0278950        1.7731170
 Cl        1.2734710        0.1933980       -2.6656550
 H       -2.2079190       -0.8878140       -1.2905790
 H       -0.9314720       -2.2526170       -1.3424080
 C       -0.3191780        1.5922330       -0.2360550
 N        0.6104380        2.5469940        0.1858900
 N       -1.5137560        2.2401380       -0.4859970
 C        1.7171030        2.2311590        1.0883890
 C        0.1190710        3.9833870       -0.1539740
 C        3.0840210        2.0886810        0.6776680
 C        1.3758920        2.0775650        2.4586110
 C        4.0404910        1.8173400        1.6868190
 C        3.6727630        1.6979840        3.0362140
 H        5.0875470        1.6988730        1.4270410
 C        2.3330860        1.8170820        3.4460070
 H        2.0576290        1.6925390        4.4898250
 C       -1.4751470        3.7395730       -0.0469050
 C       -2.6279860        1.6502520       -1.2005360
 C       -3.7261620        1.0124010       -0.5368330
 C       -2.6017090        1.7326220       -2.6167800
 C       -4.8094160        0.5815010       -1.3409860
 C       -4.7825080        0.7268390       -2.7386540
 H       -5.6800010        0.1177880       -0.8854760
 C       -3.6688290        1.2761170       -3.4030120
 H       -3.6473240        1.3402720       -4.4879900
 N       -5.9557550        0.2679600       -3.5378910
 O       -5.9060780        0.4091450       -4.8153180
 O       -6.9567580       -0.2403280       -2.9091510
 C        0.6448260        4.2633190       -1.6175000
 C        0.5093770        5.6639920       -2.2857580
 H        0.2238270        3.5049540       -2.2917640
 H        1.7153190        4.0428750       -1.5771260
 C        1.4796360        5.8031190       -3.4840800
 H        0.7169130        6.4705170       -1.5679380
 H       -0.5097600        5.8361730       -2.6529330
 H        1.3069390        5.0143260       -4.2331770
 H        1.3470740        6.7745360       -3.9854430
 H        2.5313850        5.7323700       -3.1649650
 C        0.6203260        5.0593690        0.8564340
 C        2.0905470        5.5575320        0.8114530
 H        0.4285780        4.7052890        1.8751440
 H       -0.0222220        5.9398450        0.7117500
 C        2.3210850        6.6991240        1.8299030
 H        2.3558910        5.9227000       -0.1892860
 H        2.7840470        4.7415730        1.0429490
 H        2.1126940        6.3696880        2.8601800
 H        3.3660380        7.0436960        1.7982690
 H        1.6772780        7.5681870        1.6183010
 C       -2.2810660        4.6707970       -1.0072850
 C       -3.8320640        4.7296260       -0.9332420
 H       -2.0087980        4.4344220       -2.0412500
 H       -1.9139160        5.6905000       -0.8226530
 C       -4.3975260        5.7503990       -1.9493100
 H       -4.1687230        5.0172790        0.0715940
 H       -4.2754920        3.7490970       -1.1408800
 H       -4.1340040        5.4797090       -2.9839390
 H       -5.4957070        5.7931780       -1.8878660
 H       -4.0136860        6.7658860       -1.7601660
 C       -2.0771790        3.7789190        1.4097030
 C       -2.3245340        5.1237730        2.1577700
 H       -1.4796760        3.1237620        2.0571720
 H       -3.0547340        3.2946120        1.3229830
 C       -3.3316290        4.9403080        3.3187310
 H       -2.7088160        5.8946720        1.4750270
 H       -1.3928430        5.5226370        2.5760220
 H       -2.9843790        4.1793430        4.0356780
 H       -3.4644220        5.8820210        3.8734890
 H       -4.3220310        4.6266600        2.9525920
 C        3.5683020        2.2535140       -0.7617800
 C        4.7350750        1.3343790       -1.1956390
 H        3.8885260        3.3019160       -0.8991350
 H        2.7338210        2.0847890       -1.4466050
 H        5.6762610        1.5578190       -0.6728900
 H        4.9191800        1.4708430       -2.2714790
 H        4.4915810        0.2749790       -1.0341620
 H        0.3311510        2.1389570        2.7473250
 N        4.7276280        1.4345140        4.0561990
 O        4.3666620        1.3513390        5.2885010
 O        5.9443200        1.3106390        3.6556460
 C       -3.7769380        0.7533390        0.9702210
 C       -4.1950900       -0.6806830        1.3854790
 H       -4.4886810        1.4611640        1.4298900
 H       -2.7961230        0.9602570        1.4080240
 H       -4.1755570       -0.7582320        2.4828100
 H       -3.4992040       -1.4330700        0.9914710
 H       -5.2111350       -0.9406340        1.0566300
 H       -1.7196120        2.1457910       -3.1000340
