109
Mol_000170_2D_DFT last geometry from G09 out file
 Ru        0.2452270       -0.2843950       -0.4514880
 C       -1.0315110       -1.1222940       -1.4324130
 Cl       -0.3980850       -1.1406390        1.7209760
 Cl        1.8296650        0.1307930       -2.2569290
 H       -1.9786030       -0.7464380       -1.8232050
 H       -0.7985600       -2.1889940       -1.6477630
 C       -0.3275130        1.5734570       -0.2483060
 N        0.4547970        2.4442510        0.5043350
 N       -1.3661900        2.3006290       -0.8039000
 C        1.6154710        1.9962420        1.2745680
 C        0.1630870        3.9112440        0.1149500
 C        2.8387040        1.7766070        0.6026040
 C        1.5513220        1.7804220        2.6906900
 C        3.9988380        1.3693530        1.2875140
 C        3.9795940        1.1671600        2.6845300
 H        4.9026990        1.2034980        0.7064460
 C        2.7393230        1.3794470        3.3417370
 H        2.6866550        1.2044870        4.4125240
 C       -1.4058640        3.7497220       -0.2320940
 C       -2.4899470        1.7050580       -1.5066900
 C       -3.5139720        1.0977430       -0.7403360
 C       -2.6041290        1.7105600       -2.9293750
 C       -4.6656250        0.5571170       -1.3387820
 C       -4.8427450        0.6010900       -2.7435050
 H       -5.4129380        0.0996720       -0.6948450
 C       -3.7874870        1.1739000       -3.4961040
 H       -3.8728320        1.2040010       -4.5815000
 C       -6.1056500        0.0434960       -3.4577640
 C       -6.7984880        1.1918700       -4.2606210
 C       -5.6906380       -1.0997960       -4.4396470
 C       -7.1461030       -0.5377910       -2.4590980
 H       -7.1112160        2.0065260       -3.5901020
 H       -7.6940580        0.8102810       -4.7745580
 H       -6.1338220        1.6206340       -5.0233080
 H       -5.2035230       -1.9246770       -3.8983480
 H       -4.9935130       -0.7475310       -5.2123290
 H       -6.5783180       -1.5041120       -4.9498790
 H       -8.0212000       -0.9085320       -3.0126280
 H       -7.5031560        0.2224100       -1.7485670
 H       -6.7378480       -1.3829870       -1.8855980
 C        1.0950670        4.2143570       -1.1276180
 C        1.2104420        5.6417510       -1.7376410
 H        0.8515280        3.5054370       -1.9287600
 H        2.1040630        3.9423760       -0.7947970
 C        2.4583530        5.7573680       -2.6466400
 H        1.2752380        6.4074890       -0.9512050
 H        0.3269380        5.8929750       -2.3374830
 H        3.3882860        5.5977810       -2.0781920
 H        2.4333410        5.0112780       -3.4566350
 H        2.5163800        6.7544800       -3.1112540
 C        0.4254430        4.9281840        1.2669590
 C        1.8809400        5.3091110        1.6558810
 H       -0.0710420        4.5682740        2.1711710
 H       -0.0899220        5.8589170        0.9848240
 C        1.8970610        6.3870450        2.7657210
 H        2.4347020        5.6941310        0.7893420
 H        2.4307750        4.4299620        2.0098540
 H        1.3951290        6.0336970        3.6807930
 H        2.9310060        6.6514550        3.0369350
 H        1.3904790        7.3111300        2.4420780
 C       -1.8979440        4.7992250       -1.2777340
 C       -3.4110510        4.9332710       -1.6066780
 H       -1.3691850        4.6260610       -2.2194100
 H       -1.5608600        5.7813580       -0.9136220
 C       -3.6611990        6.0765560       -2.6191130
 H       -3.9962880        5.1393520       -0.7008840
 H       -3.8052390        4.0002890       -2.0238780
 H       -3.3220270        7.0486120       -2.2252700
 H       -3.1320770        5.8991900       -3.5691610
 H       -4.7343980        6.1666980       -2.8489520
 C       -2.3637130        3.7030340        1.0220330
 C       -2.7740100        4.9971360        1.7866880
 H       -1.9563220        2.9837300        1.7430650
 H       -3.2971830        3.2631890        0.6510700
 C       -4.0357600        4.7575940        2.6508900
 H       -2.9735540        5.8251460        1.0919660
 H       -1.9694910        5.3419640        2.4474130
 H       -4.9058230        4.4884530        2.0310900
 H       -3.8766000        3.9409970        3.3731940
 H       -4.2986640        5.6615490        3.2227700
 H        2.8803120        1.8895000       -0.4755680
 C        0.2572650        1.9571500        3.4891160
 C        0.1858350        1.2691250        4.8699890
 H       -0.5697430        1.5756810        2.8802910
 H        0.0691240        3.0336570        3.6370420
 H        0.3789590        0.1908140        4.7872560
 H       -0.8250440        1.3957980        5.2882470
 H        0.8925640        1.6982270        5.5967610
 C        5.2236170        0.7079120        3.4943830
 C        6.4866670        0.5452890        2.6021850
 C        5.5492220        1.7627890        4.6007160
 C        4.9247860       -0.6733020        4.1630360
 H        7.3384580        0.2295200        3.2224420
 H        6.7670640        1.4890630        2.1110630
 H        6.3437810       -0.2196450        1.8249820
 H        6.4261180        1.4432750        5.1847020
 H        4.7135720        1.8970360        5.3013710
 H        5.7753210        2.7431410        4.1544630
 H        4.0754050       -0.6195330        4.8577630
 H        5.8020940       -1.0193560        4.7312670
 H        4.6865860       -1.4323310        3.4032220
 H       -3.3876420        1.0159860        0.3374210
 C       -1.5256400        2.2562720       -3.8655540
 C       -1.0126750        1.2478190       -4.9270980
 H       -0.6663310        2.5918780       -3.2784810
 H       -1.9238600        3.1424390       -4.3913160
 H       -1.8146200        0.8985900       -5.5937310
 H       -0.5500320        0.3755520       -4.4487570
 H       -0.2454310        1.7282660       -5.5539150
