99
Mol_000343_2D_DFT last geometry from G09 out file
 Ru       -0.0346600       -0.4166220       -0.4480130
 C        1.3304300       -0.4740790       -1.6462900
 Cl       -1.7336710       -1.2789470       -1.9544180
 Cl        0.8191730       -1.2580610        1.6368790
 H        1.8121810        0.3889510       -2.1124390
 H        1.6659470       -1.4718520       -1.9868950
 C       -0.0358810        1.5647680       -0.2450780
 N        0.9711160        2.3648020        0.3214390
 N       -1.0378500        2.4068310       -0.7306020
 C        2.0077520        1.9505050        1.2985650
 C        0.7854220        3.8599830       -0.1197150
 C        3.3483930        1.5935000        0.8957730
 C        1.7105470        1.9964090        2.7123910
 C        4.3148010        1.3046480        1.8922990
 C        4.0275390        1.3530580        3.2585220
 H        5.3206390        1.0296620        1.5802850
 C        2.7300540        1.6968510        3.6535140
 H        2.4755260        1.7165580        4.7123630
 C       -0.8086060        3.8982690       -0.3064010
 C       -2.2528410        1.9872820       -1.4535660
 C       -3.4208300        1.5503040       -0.7320450
 C       -2.3123300        2.0946040       -2.8895530
 C       -4.6142450        1.3064950       -1.4563020
 C       -4.6933640        1.4683610       -2.8438470
 H       -5.4979690        0.9717270       -0.9154160
 C       -3.5417780        1.8458130       -3.5491050
 H       -3.5722280        1.9202130       -4.6357520
 H       -5.6270380        1.2746880       -3.3739880
 C        1.5970400        4.0142750       -1.4625820
 C        1.8013280        5.4029550       -2.1331920
 H        2.5943000        3.6443740       -1.2252530
 H        1.1816470        3.3239870       -2.2060250
 H        1.9884290        6.2103830       -1.4143400
 H        0.9604540        5.7063960       -2.7643860
 H        2.6843940        5.3433510       -2.7896890
 C        1.2621180        4.8981340        0.9405330
 C        2.7690360        5.1774380        1.1638890
 H        0.8002560        5.8516230        0.6494690
 H        0.8239360        4.6355540        1.9033210
 H        2.8598650        5.9979430        1.8945990
 H        3.2876280        5.5031280        0.2546610
 H        3.3073260        4.3183020        1.5729100
 C       -1.2438810        4.9302020       -1.3941220
 C       -2.7419850        5.2843120       -1.5811120
 H       -0.7258530        5.8661490       -1.1430670
 H       -0.8450860        4.6144460       -2.3570230
 H       -3.1925990        5.7331790       -0.6886190
 H       -3.3558070        4.4275670       -1.8710350
 H       -2.8194610        6.0324170       -2.3872690
 C       -1.6450770        4.1400840        1.0000170
 C       -1.7611590        5.5592360        1.6276120
 H       -2.6583730        3.8380310        0.7291510
 H       -1.3131920        3.4460910        1.7745000
 H       -1.8054830        6.3672710        0.8875470
 H       -0.9439380        5.7868800        2.3191330
 H       -2.6923660        5.6049970        2.2143050
 C        3.8859070        1.4710040       -0.5455010
 C        4.4239460        0.0367550       -0.8343510
 C        5.0127750        2.5011890       -0.8600640
 H        3.0658000        1.6625400       -1.2399050
 H        4.6154250       -0.0852280       -1.9121480
 H        3.7131160       -0.7339860       -0.5144310
 H        5.3729330       -0.1512170       -0.3123600
 H        5.3027920        2.4245980       -1.9198630
 H        5.9123760        2.3088020       -0.2581760
 H        4.7050160        3.5361650       -0.6663930
 C        0.4134140        2.3267160        3.4228760
 C       -0.6558150        1.4015360        3.5213630
 C        0.3671550        3.4823660        4.2518320
 C       -1.7359000        1.6355290        4.3997810
 H       -0.6124670        0.4764750        2.9547790
 C       -1.7787970        2.7970580        5.1988460
 H       -2.5324120        0.8929690        4.4738890
 C       -0.7175550        3.7240580        5.1186250
 H       -2.6118650        2.9681090        5.8830410
 H       -0.7232300        4.6212930        5.7406330
 H        1.2014410        4.1854580        4.2346550
 H        4.7918550        1.1187240        4.0005950
 C       -3.4897150        1.2745710        0.7850380
 C       -3.6946910       -0.2394860        1.0914030
 C       -4.6213000        2.0822150        1.4905490
 H       -2.5398760        1.5670500        1.2385260
 H       -4.6571810       -0.6021190        0.7027020
 H       -3.6904810       -0.4022940        2.1803030
 H       -2.9129700       -0.8631920        0.6460150
 H       -5.6166330        1.7013430        1.2199210
 H       -4.5996030        3.1512930        1.2393420
 H       -4.5202810        1.9897960        2.5818780
 C       -1.1852710        2.4006280       -3.8498470
 C       -0.1775520        1.4439600       -4.1277290
 C       -1.2403880        3.5610510       -4.6690570
 C        0.7687970        1.6615870       -5.1520950
 H       -0.1738570        0.5100220       -3.5751380
 C        0.7231740        2.8353850       -5.9339550
 H        1.5241440        0.8995810       -5.3555230
 C       -0.2940690        3.7833830       -5.6903320
 H        1.4513160        2.9985800       -6.7305870
 H       -0.3599580        4.6862360       -6.3007470
 H       -2.0368450        4.2893710       -4.5129310
