71
Mol_000241_2D_DFT last geometry from G09 out file
 Ru        0.5128100        0.3584380        0.0809470
 C       -0.8503200       -0.6161540       -0.6171580
 Cl        0.2060370       -0.0899470        2.4275290
 Cl        1.9808790        0.4855480       -1.8373500
 H       -1.8449870       -0.2942020       -0.9345700
 H       -0.6299340       -1.7008790       -0.7182550
 C       -0.1849950        2.1749030        0.1910170
 N        0.5536460        3.1648260        0.8221550
 N       -1.4109140        2.7343180       -0.1488930
 C       -0.1272950        4.4851880        0.7861470
 C        1.9752580        3.1306840        1.0997720
 C       -1.5968550        4.1292280        0.4344960
 H        0.3350430        5.1149810        0.0100850
 H       -0.0350270        4.9754890        1.7590800
 C       -2.5293700        4.1558070        1.6867410
 C       -2.2693370        5.1794050       -0.4903910
 C       -2.8648470        5.6592900        1.8859050
 H       -2.0592410        3.6866910        2.5576430
 H       -3.4500580        3.6021680        1.4615120
 C       -2.6940600        6.3221930        0.4737020
 H       -3.8834770        5.7887010        2.2797820
 H       -2.1833550        6.1244660        2.6135840
 H       -1.9241070        7.1076370        0.5091300
 H       -3.6215010        6.8036610        0.1310980
 H       -3.1618290        4.7364390       -0.9552360
 H       -1.6062200        5.5112500       -1.2960120
 C        2.8344490        3.2898620       -0.0137700
 C        2.5512400        3.0140200        2.4014400
 C        4.2318010        3.3032230        0.1308230
 C        4.8271310        3.1509700        1.4044970
 H        4.8571640        3.4170310       -0.7563090
 C        3.9665360        3.0124570        2.5141410
 H        4.3869670        2.8873610        3.5112670
 C       -2.3892760        2.1760290       -1.0432310
 C       -2.2168390        2.1658950       -2.4625560
 C       -3.5767810        1.6289000       -0.5036630
 C       -3.2378140        1.6087260       -3.2736610
 C       -4.4380430        1.0900120       -2.7380740
 H       -3.0789600        1.5858850       -4.3499440
 C       -4.5882350        1.1065410       -1.3307650
 H       -5.4875300        0.6890610       -0.8740320
 H        2.3901630        3.3814850       -1.0021420
 C        1.8335270        2.8599600        3.7140590
 O        0.5684910        3.4467320        3.7482970
 O        2.3436060        2.3190660        4.7207870
 C       -0.1796920        3.2548580        5.0152480
 H       -1.0995820        3.8351470        4.8884400
 H       -0.4008810        2.1887790        5.1552870
 H        0.4045440        3.6257010        5.8676680
 C        6.3396530        3.0923320        1.5716890
 C        6.9029300        1.6495280        1.4415890
 H        6.6234190        3.4959600        2.5564810
 H        6.8222710        3.7313020        0.8146780
 H        6.6675970        1.2183190        0.4572210
 H        6.4750390        0.9868920        2.2083870
 H        7.9974440        1.6517510        1.5625830
 C       -0.9966720        2.7396040       -3.1321860
 O       -0.7615790        2.1104830       -4.3534160
 O       -0.2782810        3.6700530       -2.7031710
 C        0.4556450        2.5231140       -5.0906510
 H        0.4220700        1.9443700       -6.0199000
 H        0.4369550        3.6024840       -5.2950390
 H        1.3444050        2.2663740       -4.5011500
 H       -3.6812660        1.5751240        0.5780320
 C       -5.5324920        0.5462060       -3.6473890
 C       -6.5502480        1.6312830       -4.0956100
 H       -6.0785490       -0.2585410       -3.1298410
 H       -5.0794740        0.0937790       -4.5435450
 H       -7.0551100        2.0867200       -3.2303450
 H       -7.3212400        1.1888370       -4.7452260
 H       -6.0531460        2.4360940       -4.6576580
