71
M00000549_2D_DFT last geometry from G09 out file
 Ru       -0.1032470       -0.0335780        0.4304890
 C       -1.5516940       -0.7465080       -0.3996870
 Cl       -0.9645460        0.0651850        2.6901450
 Cl        1.6228890       -0.7172220       -1.1173940
 H       -2.3046400       -0.2549110       -1.0199860
 H       -1.6794160       -1.8399110       -0.2433000
 C       -0.1641570        1.8664900       -0.0337550
 N        0.7568940        2.7641310        0.4905210
 N       -1.0051900        2.5862210       -0.8642810
 C        0.4853260        4.1764980        0.0912950
 C        1.9135720        2.4686700        1.3042690
 C       -0.6030250        4.0239980       -0.9859810
 H        0.1299980        4.7496050        0.9595630
 H       -0.2138920        4.2191020       -1.9952340
 C        1.8345510        2.6068580        2.7209180
 C        3.1743360        2.1248710        0.7154030
 C        2.9545980        2.2834960        3.5141470
 C        4.1857480        1.8341300        2.9555830
 H        2.8489180        2.3846990        4.5915480
 C        4.2736610        1.7976650        1.5339980
 H        5.1974220        1.5195560        1.0422160
 C       -2.2001840        2.1710050       -1.5486290
 C       -2.1334540        1.7707500       -2.9149240
 C       -3.4693220        2.1974150       -0.8975130
 C       -3.3196200        1.4212080       -3.5920920
 C       -4.6001930        1.4364760       -2.9594640
 H       -3.2322990        1.1196430       -4.6326810
 C       -4.6395250        1.8204280       -1.5872330
 H       -5.5739060        1.8271480       -1.0375240
 C       -0.8053060        1.6870940       -3.6500750
 H       -0.0712820        1.0941120       -3.0907280
 H       -0.3606750        2.6822570       -3.8030670
 H       -0.9349750        1.2282380       -4.6391550
 C       -3.5985390        2.6351470        0.5349480
 O       -4.5651340        1.8840190        1.2062130
 O       -2.9557420        3.5556560        1.0886830
 C       -4.7226150        2.1565060        2.6547730
 H       -3.7871050        1.9185620        3.1767560
 H       -4.9905310        3.2084720        2.8248960
 H       -5.5285140        1.4865650        2.9734500
 H        1.3997650        4.6299190       -0.3047260
 N       -5.7645060        1.0829850       -3.6499230
 C       -7.0629720        1.0795290       -2.9603990
 C       -5.6957430        0.6652300       -5.0571310
 H       -7.8496690        0.7838770       -3.6637970
 H       -7.3215410        2.0789240       -2.5700250
 H       -7.0810910        0.3677560       -2.1164900
 H       -5.2765680        1.4584960       -5.7000110
 H       -6.7047380        0.4414710       -5.4216370
 H       -5.0815550       -0.2430660       -5.1900400
 H       -1.4707730        4.6637910       -0.7930780
 C        0.5976270        3.1527010        3.4170580
 H        0.4613080        2.6799820        4.3981660
 H       -0.3158020        2.9860110        2.8424320
 H        0.7077980        4.2382980        3.5835630
 C        3.4013450        2.1920880       -0.7697410
 O        4.5227330        1.4544000       -1.1566830
 O        2.7356760        2.8626500       -1.5930100
 C        4.8047540        1.4042960       -2.6052820
 H        4.9773510        2.4135770       -3.0050860
 H        5.7065910        0.7878160       -2.6898700
 H        3.9620310        0.9376810       -3.1319440
 N        5.2691000        1.4650670        3.7596640
 C        6.5189300        0.9898230        3.1484540
 C        5.1535090        1.5083470        5.2236670
 H        6.3505320        0.1071230        2.5081550
 H        7.2244080        0.7018490        3.9363290
 H        7.0020490        1.7701970        2.5344420
 H        6.0876020        1.1548880        5.6750630
 H        4.3372100        0.8612820        5.5893880
 H        4.9696550        2.5325710        5.5936770
