73
M00000302_2D_DFT last geometry from G09 out file
 Ru       -0.1278220        0.0372000        0.1985640
 C        0.6081140       -0.3700440       -1.4177620
 Cl       -2.4322420       -0.6352370        0.1489680
 Cl        1.7361960       -0.4648750        1.6562470
 H        0.9787430        0.3381880       -2.1595320
 H        0.7402760       -1.4474010       -1.6363390
 C       -0.2190460        1.9658790       -0.1262540
 N        0.6685650        2.9400460        0.3626800
 N       -1.1612430        2.6660670       -0.9155780
 C        0.4522680        4.2594900       -0.3412790
 C        1.7954840        2.7938010        1.2612870
 C        0.7522480        5.5886130        0.3675570
 C       -1.0338790        4.1553230       -0.6594620
 H        1.0321520        4.2315890       -1.2776930
 C        0.3292000        6.7298840       -0.6029110
 H        1.8196140        5.6850740        0.6094860
 H        0.1824340        5.6612370        1.3032100
 C       -1.1357550        6.5960630       -1.1009550
 H        1.0126470        6.7377610       -1.4691730
 H        0.4563430        7.6994220       -0.0955610
 C       -1.4469440        5.1969510       -1.7102500
 H       -1.8278920        6.7835750       -0.2631540
 H       -1.3392640        7.3712720       -1.8566790
 H       -2.5162640        5.1272470       -1.9509400
 H       -0.8846200        5.0718530       -2.6457310
 H       -1.5956780        4.3745370        0.2595260
 C        1.5894780        2.8600410        2.6736120
 C        3.1368310        2.7303020        0.7620440
 C        2.7159250        2.8242170        3.5341330
 C        4.0251630        2.7375270        3.0379550
 H        2.5450900        2.8588790        4.6099350
 C        4.2341600        2.6991160        1.6518130
 H        5.2457970        2.6332640        1.2577110
 C       -2.3561290        2.1821340       -1.5869890
 C       -2.2961920        1.6613860       -2.9220570
 C       -3.6452800        2.3359280       -0.9739110
 C       -3.5128330        1.3201750       -3.5752800
 C       -4.7642680        1.4895160       -2.9712050
 H       -3.4607990        0.9427660       -4.5953920
 C       -4.8279570        1.9995840       -1.6680260
 H       -5.7914440        2.1169760       -1.1776850
 C        0.2518430        2.9837330        3.3602330
 C       -0.5300940        1.8420310        3.6634680
 C       -0.1620510        4.2417810        3.8699140
 C       -1.7076440        1.9607640        4.4306070
 H       -0.2025170        0.8605270        3.3277010
 C       -2.1226380        3.2188350        4.9144050
 H       -2.2974990        1.0684550        4.6461120
 C       -1.3424720        4.3607770        4.6329500
 H       -3.0358710        3.3079180        5.5051350
 H       -1.6444200        5.3387460        5.0127190
 H        0.4495920        5.1266380        3.6864850
 C        3.5068160        2.7701120       -0.7029800
 F        3.6514640        4.1261070       -1.1774890
 F        2.5986730        2.1697990       -1.5940820
 F        4.7540730        2.1629230       -0.9694250
 H        4.8744740        2.7017260        3.7202870
 C       -1.0618160        1.4121390       -3.7463850
 C       -0.9089640        0.1382560       -4.3628110
 C       -0.1019640        2.4094360       -4.0483110
 C        0.1629160       -0.1268920       -5.2377230
 H       -1.6196400       -0.6560420       -4.1323510
 C        1.1110130        0.8786410       -5.5256460
 H        0.2597130       -1.1169090       -5.6866530
 C        0.9713470        2.1473120       -4.9249750
 H        1.9430070        0.6766820       -6.2019970
 H        1.6950780        2.9356720       -5.1385590
 H       -0.1965020        3.4002750       -3.6181340
 C       -3.8850870        2.8704520        0.4235680
 F       -2.8662470        2.6513740        1.3574400
 F       -5.0602300        2.3492670        1.0088460
 F       -4.0959970        4.3019430        0.4107370
 H       -5.6777330        1.2307970       -3.5064190
