61
M00000299_2D_DFT last geometry from G09 out file
 Ru        0.3677860       -0.3426790       -0.2262180
 C       -1.3274590       -0.9899530       -0.2953290
 Cl        0.8848940       -1.1407450        1.9916550
 Cl        1.0251890       -0.2486310       -2.5461260
 H       -2.2456520       -0.4803170        0.0060760
 H       -1.4283170       -2.0558220       -0.5872620
 C        0.1011280        1.5731910       -0.0429080
 N        1.1343170        2.4054110        0.4002220
 N       -0.9429470        2.3972040       -0.4574960
 C        2.1192110        2.0140110        1.3885470
 C        0.9439870        3.8553830       -0.1155010
 C        3.4227390        1.5296480        1.0999590
 C        1.7734070        2.1336010        2.7601000
 C        4.3343190        1.1998240        2.1218000
 C        3.9648820        1.3506750        3.4715190
 H        5.3193310        0.8192340        1.8563580
 C        2.6738670        1.8158770        3.7907790
 H        2.3606640        1.9093260        4.8309330
 C       -0.6665460        3.8995510       -0.1205970
 C       -2.0272380        1.9719840       -1.3147140
 C       -3.3443430        1.6747680       -0.8689970
 C       -1.7875270        1.8569570       -2.7092050
 C       -4.3723110        1.3191450       -1.7632540
 C       -4.1031480        1.2333780       -3.1439580
 H       -5.3662980        1.0983010       -1.3775330
 C       -2.8003330        1.4913520       -3.6142670
 H       -2.5655140        1.3994570       -4.6748580
 H       -4.9013100        0.9526070       -3.8320920
 C        1.6158820        3.8780860       -1.5445140
 C        1.7744490        5.2043230       -2.3369690
 H        2.6205640        3.4726390       -1.3894750
 H        1.1138820        3.1387970       -2.1813860
 H        2.1236990        6.0403860       -1.7178040
 H        0.8566760        5.5277950       -2.8408070
 H        2.5313150        5.0467440       -3.1218520
 C        1.5720460        4.9305160        0.8228100
 C        3.1084190        5.1315570        0.8446970
 H        1.1187210        5.8903800        0.5367740
 H        1.2513790        4.7375540        1.8513270
 H        3.6441530        4.2653480        1.2435660
 H        3.3348440        5.9852690        1.5036620
 H        3.5290550        5.3619890       -0.1406310
 C       -1.2240220        4.8747740       -1.2051520
 C       -2.7377380        5.2019400       -1.2588130
 H       -0.6910630        5.8248820       -1.0588840
 H       -0.9271810        4.5117250       -2.1943900
 H       -3.3526090        4.3396790       -1.5323090
 H       -2.8955490        5.9706180       -2.0325010
 H       -3.1265770        5.6070600       -0.3173130
 C       -1.3358690        4.1607770        1.2804210
 C       -1.3831500        5.5878360        1.8939830
 H       -2.3718220        3.8308420        1.1676120
 H       -0.8975050        3.4707450        2.0129240
 H       -1.6331040        6.3646470        1.1604580
 H       -0.4502850        5.8858450        2.3847070
 H       -2.1706670        5.6067040        2.6642380
 Cl        4.0070470        1.2727640       -0.6001680
 H        0.7654100        2.4550090        3.0112010
 H        4.6748000        1.0892790        4.2570730
 Cl       -3.7986280        1.6600720        0.8986820
 H       -0.7772470        2.0224810       -3.0710010
