55
Mol_000315_2D_DFT last geometry from G09 out file
 Ru        0.0326030       -0.3161160        0.8547290
 C       -1.5036380       -1.0138280        0.1708650
 Cl       -0.6432100        0.1579100        3.1080700
 Cl        1.5885940       -1.4116150       -0.5886730
 H       -2.2051500       -0.5631060       -0.5334900
 H       -1.7174130       -2.0528280        0.4958850
 C        0.0305540        1.4733990        0.2166550
 N        1.1562020        2.3225000        0.4244610
 N       -0.9788310        2.2881070       -0.3550810
 C        2.4502540        1.9256550        0.9920800
 C        0.7956280        3.7017730        0.2900220
 C        3.6129400        1.8071270        0.1718030
 C        2.5004650        1.7156210        2.3910870
 C        4.8082320        1.4258980        0.8358910
 C        4.8631570        1.1849710        2.2211350
 H        5.7198440        1.3151700        0.2499250
 C        3.7044920        1.3358070        3.0096420
 H        3.7321680        1.1663930        4.0863160
 C       -0.5232710        3.6385990       -0.5446600
 C       -2.2266460        1.8764970       -0.9957660
 C       -3.4851620        1.9960860       -0.3391280
 C       -2.1226080        1.4182910       -2.3326250
 C       -4.6269090        1.6214890       -1.0992600
 C       -4.5349550        1.1602210       -2.4250060
 H       -5.6110350        1.6965620       -0.6381160
 C       -3.2739050        1.0541930       -3.0512390
 H       -3.1879970        0.7011610       -4.0792070
 H       -5.4410570        0.8873660       -2.9683850
 F        1.7827770        4.5063240       -0.3063650
 F        0.5471350        4.3295840        1.5637360
 F       -0.2474800        3.9351500       -1.9257000
 F       -1.4673080        4.6123050       -0.1601720
 C        3.6536440        2.1024620       -1.3374180
 C        4.1637330        0.8972630       -2.1769260
 C        4.5161200        3.3652350       -1.6379240
 H        2.6303360        2.3175300       -1.6742010
 H        3.5593260        0.0007010       -2.0009710
 H        5.2124420        0.6550700       -1.9497090
 H        4.1090040        1.1473370       -3.2478370
 H        4.4511310        3.6134880       -2.7083280
 H        5.5760010        3.1910990       -1.3997020
 H        4.1773780        4.2377120       -1.0655610
 H        1.6014920        1.8517260        2.9861130
 H        5.8067060        0.8889720        2.6826320
 C       -3.6624630        2.4902930        1.1048070
 C       -4.3280020        1.4137260        2.0095000
 C       -4.4655920        3.8224460        1.1591350
 H       -2.6686600        2.6902300        1.5256020
 H       -3.7484260        0.4817750        2.0205270
 H       -5.3539180        1.1830540        1.6858250
 H       -4.3792600        1.7827670        3.0444730
 H       -4.5026650        4.1901170        2.1956850
 H       -5.5022610        3.6868700        0.8162750
 H       -3.9999010        4.6002310        0.5401330
 H       -1.1398360        1.3491300       -2.7973580
