113
Mol_000318_2D_DFT last geometry from G09 out file
 Ru        0.2740270       -0.2268740       -0.9420300
 C       -1.1828020       -1.1628340       -1.4856900
 Cl        0.6639960       -1.3676670        1.1565490
 Cl        1.0699850        0.4211750       -3.1525360
 H       -2.2318630       -0.8631240       -1.4978360
 H       -0.9535110       -2.1837030       -1.8633400
 C       -0.3449870        1.5587330       -0.4063430
 N        0.5830740        2.4541830        0.1334510
 N       -1.5479420        2.2166660       -0.6234370
 C        1.7521240        2.0706670        0.9514540
 C        0.1178550        3.9217230       -0.1004410
 C        3.1003300        1.9851790        0.4507660
 C        1.5456330        1.8211820        2.3533740
 C        4.1612270        1.7736780        1.3583950
 C        3.9810960        1.6102360        2.7558030
 H        5.1618350        1.7079680        0.9450490
 C        2.6363470        1.6037750        3.2139510
 H        2.4160330        1.3950000        4.2576540
 C       -1.4927630        3.7144900       -0.1667550
 C       -2.7478020        1.5871900       -1.1826620
 C       -3.7095150        0.9037190       -0.3534900
 C       -2.9803930        1.6254820       -2.5974180
 C       -4.8755430        0.3714120       -0.9454070
 C       -5.1541600        0.4547530       -2.3373760
 H       -5.5770130       -0.1413190       -0.2954110
 C       -4.1570110        1.0706480       -3.1412250
 H       -4.2757780        1.1184920       -4.2211960
 N       -6.3350210       -0.0611840       -2.8882480
 C       -6.5523010       -0.0222660       -4.3408010
 C       -7.3150250       -0.7476890       -2.0363200
 H       -6.5266770        1.0106210       -4.7277710
 H       -7.5389530       -0.4388630       -4.5747780
 H       -5.7978200       -0.6116300       -4.8929470
 H       -7.6759220       -0.0939280       -1.2242020
 H       -6.9034890       -1.6656480       -1.5780200
 H       -8.1845020       -1.0363960       -2.6383820
 C        0.7846240        4.3550680       -1.4681230
 C        0.7252160        5.8200340       -1.9960940
 H        0.4345770        3.6814560       -2.2591510
 H        1.8435730        4.1222520       -1.3403380
 C        1.7434510        6.0456220       -3.1412270
 H        0.9342510        6.5407980       -1.1922250
 H       -0.2701620        6.0691630       -2.3810820
 H        1.5679970        5.3462810       -3.9741450
 H        1.6617450        7.0690730       -3.5409220
 H        2.7797670        5.9012740       -2.8002020
 C        0.5308120        4.9009600        1.0428050
 C        2.0051800        5.3572560        1.2151630
 H        0.2062220        4.4848150        2.0011080
 H       -0.0635340        5.8118560        0.8835770
 C        2.1286360        6.4134270        2.3393970
 H        2.3959840        5.7928430        0.2859470
 H        2.6489340        4.5073890        1.4603200
 H        1.7916800        6.0106390        3.3081490
 H        3.1757710        6.7324990        2.4605210
 H        1.5285990        7.3127770        2.1227830
 C       -2.1615590        4.6897300       -1.1922920
 C       -3.7089930        4.7798180       -1.3126510
 H       -1.7603380        4.4909700       -2.1876520
 H       -1.8117010        5.6944740       -0.9161830
 C       -4.1238320        5.8693000       -2.3311400
 H       -4.1673850        5.0239020       -0.3451810
 H       -4.1361690        3.8219390       -1.6257420
 H       -3.7294220        5.6551050       -3.3372630
 H       -5.2206040        5.9306910       -2.4113580
 H       -3.7552970        6.8649800       -2.0340210
 C       -2.2628030        3.8220300        1.2042710
 C       -2.5440480        5.2022230        1.8760620
 H       -1.7779520        3.1799120        1.9424240
 H       -3.2394180        3.3718060        1.0048480
 C       -3.6847670        5.1096850        2.9188670
 H       -2.8129670        5.9646570        1.1319440
 H       -1.6509650        5.5777340        2.3893580
 H       -3.4614290        4.3592640        3.6938260
 H       -3.8290180        6.0776120        3.4247770
 H       -4.6424410        4.8314070        2.4523400
 C        3.5190440        2.0397400       -1.0336710
 C        4.2011500        0.7103600       -1.4766330
 C        4.4722550        3.2280160       -1.3568640
 H        2.6221180        2.1461600       -1.6492140
 H        4.3441050        0.7118590       -2.5667570
 H        3.5867130       -0.1627350       -1.2248200
 H        5.1855850        0.5805370       -1.0027760
 H        4.0673510        4.1935650       -1.0268480
 H        4.6447070        3.2821030       -2.4431420
 H        5.4521720        3.1012200       -0.8731490
 C        0.1758150        1.7284870        3.0081370
 H       -0.1754150        2.7061800        3.3724510
 H        0.2260210        1.0606940        3.8777310
 H       -0.5719330        1.3137760        2.3322410
 N        5.0628800        1.4345410        3.6302050
 C        4.8253480        1.1521410        5.0522540
 C        6.4308210        1.3315060        3.1050820
 H        4.2970520        0.1936040        5.2092950
 H        4.2313380        1.9505430        5.5273210
 H        5.7852190        1.0975600        5.5795140
 H        6.7091950        2.2283020        2.5268630
 H        6.5672000        0.4486720        2.4533910
 H        7.1372880        1.2454720        3.9392460
 C       -3.5472740        0.6370600        1.1605700
 C       -3.3429590       -0.8732660        1.4813400
 C       -4.7453230        1.1741900        1.9988300
 H       -2.6453710        1.1510700        1.5004350
 H       -2.4319610       -1.2676220        1.0205360
 H       -4.1982760       -1.4774170        1.1439780
 H       -3.2451040       -1.0105370        2.5697260
 H       -4.5007050        1.1304770        3.0717210
 H       -5.6488360        0.5655930        1.8469430
 H       -5.0010240        2.2122540        1.7496130
 C       -2.0139340        2.2211910       -3.6109170
 H       -2.4109240        3.1590410       -4.0311480
 H       -1.8750080        1.5242600       -4.4486180
 H       -1.0253140        2.4065290       -3.1973430
