85
Mol_000317_2D_DFT last geometry from G09 out file
 Ru        0.2467410       -0.1138340        0.5208460
 C       -1.0655950       -1.0515830       -0.3114520
 Cl       -0.7014800       -0.0564200        2.7427010
 Cl        2.0033580       -0.5491240       -1.1158500
 H       -1.8706700       -0.7212830       -0.9700400
 H       -1.0159260       -2.1446930       -0.1099060
 C        0.0045330        1.7679320        0.0604880
 N        0.8770510        2.7164420        0.5897380
 N       -0.8464380        2.4149640       -0.8196420
 C        1.8871040        2.3838790        1.5931910
 C        0.8936480        3.9907940       -0.2932720
 C        3.0844930        1.7512750        1.1676890
 C        1.6983300        2.6745770        2.9828840
 C        4.1070970        1.4055960        2.0683720
 C        3.9143070        1.7052220        3.4252650
 H        5.0079900        0.9062170        1.7172330
 C        2.7384630        2.3168910        3.8791160
 H        2.6097880        2.4984850        4.9439370
 C       -0.6544920        3.9610530       -0.7654740
 C       -2.0217410        1.7890980       -1.4000890
 C       -3.1289640        1.5500960       -0.5454880
 C       -2.0926700        1.4065670       -2.7738270
 C       -4.3357240        1.0134240       -1.0249600
 C       -4.4230860        0.7194420       -2.3974550
 H       -5.1726540        0.8341310       -0.3526600
 C       -3.3293820        0.8961970       -3.2549880
 H       -3.4217170        0.6251380       -4.3049820
 Cl       -5.9822350        0.0688720       -3.0707410
 C        1.9438630        3.6820880       -1.4334960
 C        2.3475880        4.7430180       -2.4900300
 H        2.8641660        3.4143920       -0.9014370
 H        1.6299780        2.7684080       -1.9531830
 H        1.6000660        4.8836490       -3.2779540
 H        3.2694930        4.3982310       -2.9850220
 H        2.5659200        5.7266380       -2.0558900
 C        1.2785180        5.2753690        0.5106370
 C        2.7653210        5.5356990        0.8655640
 H        0.9253610        6.1365330       -0.0729140
 H        0.7100530        5.2909740        1.4454340
 H        3.4088610        5.6279490       -0.0170010
 H        3.1908210        4.7620990        1.5118250
 H        2.8283880        6.4903000        1.4122070
 C       -0.9602440        4.5786520       -2.1620150
 C       -0.8505030        6.1163140       -2.3134430
 H       -0.3267140        4.1060240       -2.9161940
 H       -1.9904960        4.2953970       -2.4169410
 H        0.1781360        6.4811510       -2.2256910
 H       -1.4630590        6.6625520       -1.5862170
 H       -1.2090380        6.3987570       -3.3158730
 C       -1.6134760        4.5781160        0.3300620
 C       -3.0983530        4.8623080       -0.0165030
 H       -1.5807930        3.9267590        1.2118570
 H       -1.1888550        5.5395030        0.6435680
 H       -3.6054870        5.2104830        0.8979970
 H       -3.6430250        3.9862080       -0.3762920
 H       -3.2128190        5.6556140       -0.7657230
 H        3.2072480        1.4869430        0.1232680
 C        0.4319370        3.2784110        3.5815390
 C        0.6360970        4.5552540        4.4449500
 H       -0.2858400        3.4910390        2.7857910
 H       -0.0399590        2.5046430        4.2069420
 C       -0.6941790        5.0960480        5.0239710
 H        1.3204320        4.3407740        5.2814170
 H        1.1223420        5.3438890        3.8472410
 C       -0.5118590        6.3538810        5.9020290
 H       -1.1790550        4.3027870        5.6192640
 H       -1.3890790        5.3271240        4.1970900
 H       -0.0601530        7.1806650        5.3303710
 H        0.1427240        6.1474630        6.7637820
 H       -1.4783060        6.7072930        6.2945130
 Cl        5.2065480        1.2705550        4.6294020
 H       -3.0326230        1.7692080        0.5157920
 C       -0.9163490        1.4645170       -3.7446240
 C       -0.5122920        0.0856860       -4.3440020
 H       -1.1646360        2.1457960       -4.5773380
 H       -0.0405700        1.8786970       -3.2373330
 C        0.6865600        0.1958080       -5.3160980
 H       -0.2470560       -0.5993520       -3.5256270
 H       -1.3665670       -0.3625390       -4.8775070
 C        1.1065850       -1.1660560       -5.9117670
 H        1.5463120        0.6343020       -4.7814710
 H        0.4344940        0.8923020       -6.1364000
 H        1.4073980       -1.8670810       -5.1177920
 H        1.9601160       -1.0517250       -6.5984200
 H        0.2817330       -1.6290770       -6.4772450
