53
Mol_000316_2D_DFT last geometry from G09 out file
 Ru        0.4008850        0.1100410       -0.1845720
 C       -0.7214460       -0.5079190       -1.4781070
 Cl       -0.6140160       -0.7691730        1.8064480
 Cl        2.3504310        0.3709910       -1.5639240
 H       -1.4411550        0.0535820       -2.0776020
 H       -0.6104200       -1.5878700       -1.7082930
 C       -0.1441710        1.9174450        0.0283730
 N        0.6593600        2.8125740        0.7727990
 N       -1.2865400        2.6484440       -0.3663020
 C        1.8654540        2.4346810        1.4917700
 C        0.1904120        4.1621660        0.6454950
 C        3.1507950        2.6915200        0.9648020
 C        1.7473300        1.8607040        2.7783510
 C        4.2959790        2.3694040        1.7031230
 C        4.2039260        1.7725740        3.0029590
 H        5.2645930        2.5698640        1.2530300
 C        2.8900080        1.5248050        3.5166270
 H        2.7507320        1.0711960        4.4942450
 C       -1.3174240        3.9379060        0.2866030
 C       -2.4316180        2.1417920       -1.0966370
 C       -3.4344970        1.3886710       -0.4473080
 C       -2.5602530        2.4199990       -2.4747190
 C       -4.5474470        0.9228880       -1.1622910
 C       -4.7065540        1.1991470       -2.5597910
 H       -5.2922610        0.3424220       -0.6242660
 C       -3.6709790        1.9589480       -3.1969300
 H       -3.7285730        2.1967740       -4.2558720
 N       -5.8192300        0.7451720       -3.2704830
 C       -6.8684660       -0.0314510       -2.5920300
 C       -5.9605780        1.0464170       -4.7031960
 H       -6.4753270       -0.9734690       -2.1723890
 H       -7.6547120       -0.2892930       -3.3102950
 H       -7.3365300        0.5405100       -1.7725360
 H       -6.8950190        0.6136060       -5.0773660
 H       -5.1328990        0.6204020       -5.2963660
 H       -5.9947280        2.1332100       -4.8923280
 Cl        1.0814020        5.0273440       -0.8717370
 Cl        0.5296060        5.2473870        2.0796080
 Cl       -2.1242480        5.2840560       -0.6649110
 Cl       -2.3515550        3.8020510        1.9354670
 H        3.2575770        3.1218690       -0.0273480
 H        0.7621860        1.6681890        3.1985680
 N        5.3462400        1.4445190        3.7354300
 C        5.2248780        0.8102450        5.0568520
 C        6.6845250        1.6963010        3.1793910
 H        4.6838780        1.4537000        5.7718140
 H        6.2240640        0.6239300        5.4663540
 H        4.6983510       -0.1582080        5.0003070
 H        7.4458050        1.3790170        3.9009040
 H        6.8457630        2.7679000        2.9715420
 H        6.8529150        1.1356730        2.2435840
 H       -3.3409470        1.1552590        0.6111980
 H       -1.7881030        2.9952860       -2.9849470
