51
Mol_000314_2D_DFT last geometry from G09 out file
 Ru        0.0126490       -0.2038590       -0.5097510
 C        1.7890290       -0.4885750       -0.2512050
 Cl       -0.0981590       -0.1792250       -2.9027130
 Cl       -0.9599510       -0.8822250        1.5836770
 H        2.5941520        0.2280530       -0.0699520
 H        2.0913350       -1.5537410       -0.3351980
 C       -0.2165110        1.6932570       -0.2148290
 N        0.5749460        2.6572620        0.3964890
 N       -1.4004390        2.3440470       -0.5673330
 C       -0.0398380        4.0251580        0.3546270
 C        1.9115730        2.5462320        0.8932260
 C       -1.5068020        3.7085780        0.0348700
 H        0.4370270        4.6220860       -0.4378780
 H        0.0794570        4.5214760        1.3229420
 H       -1.9404620        4.4131060       -0.6789440
 C        2.2192850        2.2414600        2.2471540
 C        2.9948380        2.8135910        0.0205940
 C        3.5521760        2.1641240        2.6965240
 C        4.6227510        2.4350510        1.8161140
 H        3.7248290        1.8950390        3.7350760
 C        4.3241990        2.7709130        0.4692930
 H        5.1482520        2.9826520       -0.2106900
 C       -2.5451020        1.7586770       -1.2054970
 C       -2.9331060        2.0471470       -2.5502530
 C       -3.3648070        0.8774100       -0.4645440
 C       -4.0877880        1.4761220       -3.1077060
 C       -4.9036950        0.6010590       -2.3530530
 H       -4.3566350        1.6941220       -4.1388940
 C       -4.5192170        0.3002570       -1.0246520
 H       -5.1121750       -0.3745960       -0.4099910
 N       -2.1307720        2.9183110       -3.4586900
 O       -1.4348970        3.8726770       -2.9459260
 O       -2.1902880        2.6775900       -4.7160910
 H       -3.0804830        0.6407040        0.5581380
 H       -2.1256910        3.6577360        0.9446130
 C       -6.1450750        0.0301250       -3.0102010
 C       -6.9555720       -1.0298050       -2.2725000
 O       -6.4914800        0.4325680       -4.1526040
 H       -7.3712170       -0.6310710       -1.3334020
 H       -7.7824450       -1.3555680       -2.9127890
 H       -6.3340640       -1.9014120       -2.0153220
 N        1.1641970        2.0095480        3.2776830
 O        1.4117880        1.1432120        4.1909340
 O        0.0957090        2.7203170        3.2204710
 H        2.7737930        3.0378530       -1.0228500
 C        6.0752140        2.3820960        2.2529560
 C        6.4118520        1.9994530        3.6890280
 O        6.9830700        2.6525390        1.4224380
 H        6.0287410        0.9970680        3.9365870
 H        7.4999710        2.0045630        3.8138450
 H        5.9683360        2.7079380        4.4062820
