81
Mol_000040_2D_DFT last geometry from G09 out file
 Ru        0.4252610        0.1858730       -0.3868850
 C       -0.8988950       -0.5955340       -1.3505830
 Cl       -0.2120010       -0.5441380        1.8288530
 Cl        2.0146940        0.4622980       -2.2049970
 H       -1.8101150       -0.1587850       -1.7641730
 H       -0.7348830       -1.6782640       -1.5478350
 C       -0.1452610        2.0275400       -0.1076930
 N        0.6447310        2.8862110        0.6543820
 N       -1.2819070        2.7358300       -0.4900300
 C        0.1131360        4.2738160        0.6184170
 C        2.0115610        2.6810850        1.1101580
 C       -1.3698240        4.0803530        0.2267170
 H        0.6642660        4.8619480       -0.1362080
 H        0.2341880        4.7599340        1.5901980
 C       -2.3167900        4.0677970        1.4712930
 C       -1.9450620        5.2605590       -0.5953510
 C       -2.5606170        5.5675750        1.7978910
 H       -1.8958080        3.5009480        2.3116880
 H       -3.2647970        3.5924280        1.1909830
 C       -2.2738760        6.3453280        0.4662900
 H       -3.5895490        5.7293360        2.1507880
 H       -1.8940560        5.9159680        2.6007770
 H       -1.4217970        7.0296820        0.5968790
 H       -3.1302050        6.9609590        0.1547300
 H       -2.8672620        4.9323970       -1.0928410
 H       -1.2532400        5.6187740       -1.3685230
 C        3.0484930        2.7155000        0.1470130
 C        2.3522820        2.5950980        2.4958540
 C        4.3983360        2.6173430        0.5025960
 C        4.7730840        2.5033390        1.8758170
 H        5.1429170        2.6202940       -0.2890590
 C        3.7190040        2.5078480        2.8383660
 H        3.9675280        2.4291310        3.8921960
 C       -2.4326610        2.2065770       -1.1932170
 C       -2.6322590        2.3955220       -2.5955910
 C       -3.4104520        1.4967590       -0.4521770
 C       -3.8159700        1.8842460       -3.1760030
 C       -4.8205820        1.1910480       -2.4361190
 H       -3.9506390        2.0234950       -4.2445230
 C       -4.5771720        0.9946420       -1.0408270
 H       -5.2769560        0.4426750       -0.4185120
 H        2.7869840        2.7923890       -0.9053480
 C        1.3019680        2.6277500        3.6200320
 C        1.3243050        3.9860300        4.3838160
 C        1.4449150        1.4504900        4.6234780
 H        0.3173990        2.5179630        3.1474360
 H        2.2681200        4.1157410        4.9345700
 H        0.5013650        4.0258470        5.1151230
 H        1.2201680        4.8464890        3.7061650
 H        0.5979860        1.4558060        5.3276620
 H        2.3680240        1.5242540        5.2181700
 H        1.4416390        0.4879930        4.0989950
 N        6.1161790        2.3952460        2.2611200
 C        6.4769250        2.2604190        3.6780640
 C        7.1742610        2.3532410        1.2424480
 H        7.5665570        2.1873310        3.7734980
 H        6.0385230        1.3541840        4.1330330
 H        6.1483830        3.1320220        4.2712560
 H        7.0472800        1.5008370        0.5521760
 H        8.1495630        2.2454160        1.7312060
 H        7.2022170        3.2780020        0.6398260
 C       -1.5950430        3.0811520       -3.5049210
 C       -2.1755190        4.3007250       -4.2763380
 C       -0.9482470        2.0767350       -4.5022480
 H       -0.7860110        3.4499660       -2.8601440
 H       -2.6523750        5.0266210       -3.6034580
 H       -2.9249640        3.9934280       -5.0211310
 H       -1.3689530        4.8184300       -4.8188680
 H       -0.4584680        1.2493060       -3.9765170
 H       -0.1801970        2.5876240       -5.1035710
 H       -1.6948240        1.6594360       -5.1950600
 H       -3.2258140        1.2979710        0.6027090
 N       -5.9854910        0.7119550       -3.0497850
 C       -6.1897990        0.8793140       -4.4948940
 C       -6.9801900       -0.0343830       -2.2666860
 H       -6.1986710        1.9438330       -4.7865420
 H       -7.1572520        0.4500410       -4.7798580
 H       -5.4089490        0.3696650       -5.0875980
 H       -6.5687540       -0.9749500       -1.8582730
 H       -7.8316890       -0.2922390       -2.9069220
 H       -7.3663930        0.5633850       -1.4235620
