71
Mol_000041_2D_DFT last geometry from G09 out file
 Ru       -0.5769390        0.4995430        1.6338690
 C       -2.2060660       -0.1730570        1.1933530
 Cl       -1.1112300        1.3986200        3.8127940
 Cl        0.8874570       -0.8016180        0.2456700
 H       -3.0034890        0.2786460        0.5972920
 H       -2.4221760       -1.1736240        1.6239030
 C       -0.5027290        2.1848480        0.6878500
 N        0.5980760        3.0436000        0.8235300
 N       -1.4449900        2.8625500       -0.0933460
 C        0.4275380        4.2761920       -0.0127370
 C        1.8535600        2.6957970        1.4480890
 C        0.9558540        5.6310400        0.4777070
 C       -1.1000540        4.3317990       -0.1442480
 H        0.8637980        4.0786230       -1.0034510
 C        0.5789520        6.6696290       -0.6222560
 H        2.0463790        5.6161440        0.6142440
 H        0.4987840        5.8977140        1.4435520
 C       -0.9221650        6.6351940       -1.0305440
 H        1.2030910        6.4791950       -1.5117060
 H        0.8354900        7.6814420       -0.2703810
 C       -1.4626900        5.2076460       -1.3524260
 H       -1.5316350        7.0631290       -0.2167290
 H       -1.0735500        7.2835980       -1.9081180
 H       -2.5450080        5.2595180       -1.5192010
 H       -0.9977580        4.8143950       -2.2701310
 H       -1.5292720        4.7896930        0.7623490
 C        1.9271530        2.7356390        2.8579560
 C        3.0359150        2.3540070        0.7227860
 C        3.1077740        2.4064880        3.5455110
 C        4.2828340        2.0482140        2.8448390
 H        3.0988770        2.4331450        4.6349560
 C        4.2201320        2.0465970        1.4340410
 H        5.1114820        1.7782690        0.8698620
 C       -2.5094090        2.2828420       -0.8543940
 C       -2.1555120        1.4080670       -1.9122390
 C       -3.8915060        2.5790370       -0.6637120
 C       -3.1224390        0.8560860       -2.7655380
 C       -4.4968770        1.1705060       -2.6138300
 H       -2.7947110        0.1868870       -3.5610070
 C       -4.8502120        2.0329640       -1.5546540
 H       -5.9007860        2.2728450       -1.3989900
 H        1.0328620        3.0073370        3.4110660
 C        3.1472820        2.3601200       -0.7848580
 F        3.4792030        3.6765260       -1.2788590
 F        1.9868830        1.9893460       -1.4915900
 F        4.1755720        1.5241590       -1.2650740
 C        5.5779490        1.6531140        3.5638250
 C        5.4098950        0.3080680        4.3271570
 C        6.1021360        2.7756760        4.5013940
 H        6.3468470        1.4918020        2.7897110
 H        4.6694210        0.3930490        5.1364320
 H        6.3671840        0.0028690        4.7767140
 H        5.0786370       -0.4939990        3.6510490
 H        5.4054220        2.9740980        5.3292780
 H        6.2529890        3.7170740        3.9518510
 H        7.0665160        2.4809690        4.9424270
 H       -1.1027020        1.1661220       -2.0482230
 C       -4.4187740        3.4492050        0.4546840
 F       -4.4786720        4.8402120        0.0979240
 F       -3.6701410        3.3960840        1.6437410
 F       -5.7461610        3.1124120        0.8145630
 C       -5.5723160        0.6071110       -3.5502420
 C       -5.6431170       -0.9443370       -3.4909130
 C       -5.3870660        1.1109590       -5.0095780
 H       -6.5454070        0.9886250       -3.1980220
 H       -4.7152440       -1.4099020       -3.8552610
 H       -6.4691860       -1.3109640       -4.1190200
 H       -5.8162580       -1.2960060       -2.4628390
 H       -4.4434340        0.7514730       -5.4464710
 H       -5.3835290        2.2103820       -5.0545970
 H       -6.2092320        0.7471620       -5.6444790
