55
Mol_000272_2D_DFT last geometry from G09 out file
 Ru        0.0381970       -0.2785870        0.7208150
 C       -1.4657460       -1.0103290        0.0123950
 Cl       -0.6255300       -0.0853570        3.0455190
 Cl        1.6247270       -0.8703480       -0.9881150
 H       -2.2685910       -0.5318440       -0.5536280
 H       -1.5560570       -2.1070050        0.1697980
 C       -0.1189950        1.6146990        0.3359340
 N        0.9461850        2.4887820        0.5629670
 N       -1.2055810        2.3939810       -0.0469310
 C        2.2720930        2.1690520        1.0696740
 C        0.4989980        3.9120620        0.5775260
 C        3.4313740        2.3812750        0.2622390
 C        2.3904130        1.7309250        2.4109660
 C        4.6885330        2.1143640        0.8610590
 C        4.8098530        1.6551170        2.1867580
 H        5.5947140        2.2574710        0.2724510
 C        3.6538420        1.4591120        2.9685500
 H        3.7275390        1.1052690        3.9977130
 C       -0.8424640        3.8404550       -0.1679240
 H       -1.6157700        4.4723680        0.2846700
 H       -0.7465230        4.1134940       -1.2320420
 C       -2.4400600        1.9846240       -0.6860460
 C       -2.3813820        1.6446650       -2.0613610
 C       -3.6841660        2.0301060        0.0072780
 C       -3.5522350        1.3286100       -2.7735320
 C       -4.7953190        1.3670020       -2.1045680
 H       -3.4952820        1.0569810       -3.8284210
 C       -4.8491690        1.7117330       -0.7408440
 H       -5.8186100        1.7308860       -0.2427920
 H       -1.4101690        1.6101960       -2.5564190
 C       -3.7941880        2.4025120        1.4931630
 C       -4.4617370        1.2784010        2.3340520
 C       -4.5373570        3.7561730        1.6900070
 H       -2.7741440        2.5197250        1.8830860
 H       -5.5058220        1.1029870        2.0342480
 H       -4.4613530        1.5588610        3.3981420
 H       -3.9082090        0.3350860        2.2411140
 H       -4.5284680        4.0403470        2.7535030
 H       -5.5883360        3.6921950        1.3703780
 H       -4.0658550        4.5698660        1.1176390
 H        0.3791620        4.2513830        1.6202030
 H        1.2265620        4.5618100        0.0814560
 H       -5.7148550        1.1280760       -2.6416480
 C        3.3696100        2.8855350       -1.1887960
 C        4.0902170        1.9334950       -2.1840180
 C        3.9354150        4.3316850       -1.3165410
 H        2.3123180        2.9077740       -1.4889570
 H        3.6936060        0.9145430       -2.1067770
 H        5.1751160        1.8978910       -2.0055910
 H        3.9369910        2.2866370       -3.2160330
 H        5.0119670        4.3590050       -1.0917200
 H        3.4399070        5.0353440       -0.6304480
 H        3.7997770        4.7044210       -2.3438800
 H        1.4923290        1.5961170        3.0091250
 H        5.7979270        1.4527720        2.6038050
