72
Mol_000269_2D_DFT last geometry from G09 out file
 Ru       -0.1682150       -0.3006860        0.2558900
 C        1.5884880       -0.4003520       -0.2076140
 Cl       -1.1018120       -1.1177860       -1.8241060
 Cl       -0.2367940       -0.5954470        2.6326990
 H        2.2054440        0.3965000       -0.6331770
 H        2.0589470       -1.4022980       -0.1394910
 C       -0.3880630        1.6399390        0.2575610
 N        0.4266810        2.6154000        0.8145600
 N       -1.5078690        2.2958710       -0.2550090
 C       -0.1910090        3.9797290        0.7852340
 C        1.7813380        2.5123110        1.2783260
 C       -1.4513080        3.8015130       -0.0875750
 H        0.5106560        4.7006070        0.3450440
 H       -0.4439530        4.2689290        1.8090480
 H       -1.3042540        4.2463520       -1.0822920
 C        2.1935070        2.3460230        2.6374380
 C        2.8278720        2.6827460        0.3450710
 C        3.5666120        2.2648130        2.9545230
 C        4.6025330        2.4000720        1.9778470
 H        3.8376810        2.1205090        3.9942460
 C        4.1915970        2.6354050        0.6321050
 H        4.8940640        2.7741400       -0.1836790
 C       -2.6641520        1.7073590       -0.8691400
 C       -3.0508960        1.9816080       -2.2134270
 C       -3.5821680        0.9515110       -0.1082240
 C       -4.2841600        1.5166540       -2.7134570
 C       -5.1729920        0.7129110       -1.9352940
 H       -4.5329060        1.7795380       -3.7364500
 C       -4.7837220        0.4367450       -0.5913630
 H       -5.3870960       -0.1609180        0.0847480
 C       -2.2066820        2.7523850       -3.2196480
 C       -0.7626570        2.3395030       -3.4592500
 O       -2.7465330        3.6603190       -3.9129810
 H       -0.7153790        1.2616070       -3.6720100
 H       -0.3572460        2.9129670       -4.3012510
 H       -0.1332300        2.4975390       -2.5746520
 F       -3.2710050        0.6767160        1.2342330
 C       -2.7211080        4.4125560        0.5126610
 C       -3.6289150        5.1320740       -0.3000150
 N       -2.9186760        4.2406380        1.8517040
 C       -4.7815780        5.6894600        0.2933220
 H       -3.4480070        5.2462860       -1.3684650
 C       -4.9953300        5.5078680        1.6753670
 H       -5.4953240        6.2495850       -0.3123900
 C       -4.0354790        4.7753080        2.4101630
 H       -5.8731980        5.9206740        2.1733560
 H       -4.1551290        4.6091660        3.4826140
 N       -6.3699070        0.2240630       -2.4612660
 C       -7.2510290       -0.6135500       -1.6346560
 C       -6.7242390        0.4815020       -3.8653530
 H       -6.7492070       -1.5417000       -1.3091990
 H       -8.1364790       -0.8968250       -2.2146520
 H       -7.5977940       -0.0768160       -0.7349420
 H       -7.6837130        0.0033330       -4.0925360
 H       -5.9705030        0.0725060       -4.5601690
 H       -6.8303770        1.5604390       -4.0701240
 C        1.2174200        2.3887830        3.8048630
 C        1.4783500        1.5071940        5.0239550
 O        0.2594090        3.2021360        3.7956210
 H        0.5357620        1.3878900        5.5699620
 H        1.8656680        0.5214430        4.7436200
 H        2.1999400        1.9955600        5.7009380
 F        2.4797270        2.9040920       -1.0081570
 N        5.9522050        2.3194610        2.3214020
 C        6.3539800        2.0631140        3.7131870
 C        6.9877030        2.4836920        1.2897700
 H        5.9450400        1.1092740        4.0874500
 H        6.0271270        2.8698770        4.3920490
 H        7.4462840        2.0017320        3.7714610
 H        6.9075990        1.7137160        0.5029630
 H        7.9786470        2.3906700        1.7474750
 H        6.9325130        3.4753650        0.8084340
