41
Mol_000255_2D_DFT last geometry from G09 out file
 Ru        0.0927040       -0.0666020        0.2958260
 C       -0.8123940       -0.7084280       -1.1476990
 Cl       -1.4512830       -0.2020890        2.1032390
 Cl        2.2831230       -0.7094760       -0.4233620
 H       -1.0128060       -0.1704650       -2.0767360
 H       -1.0702800       -1.7847180       -1.1124130
 C       -0.0083120        1.8016720       -0.0579530
 N        0.9118060        2.7348500        0.4792310
 N       -0.9342590        2.5734830       -0.8086800
 C        1.9982690        2.4075570        1.3895440
 C        0.7836150        4.0336120       -0.1298100
 C        3.2836100        2.2012480        0.8441330
 C        1.8400070        2.2914950        2.8042110
 C        4.3899190        1.9118800        1.6654180
 C        4.2214370        1.7962180        3.0582860
 H        5.3679870        1.7581820        1.2098720
 C        2.9464440        1.9764600        3.6220370
 H        2.7873710        1.8830580        4.6935520
 C       -0.6955390        4.0022380       -0.6698530
 C       -2.2144290        2.1049680       -1.3081210
 C       -3.2392290        1.8369180       -0.3742950
 C       -2.5229370        2.0048530       -2.6937770
 C       -4.5326310        1.4768560       -0.8024470
 C       -4.8320610        1.4143670       -2.1783960
 H       -5.3000670        1.2620440       -0.0589290
 C       -3.8260360        1.6833470       -3.1248960
 H       -4.0302300        1.6367970       -4.1927730
 H       -5.8352910        1.1541880       -2.5161160
 Cl        2.0180740        4.1810690       -1.6259170
 Cl        1.2047210        5.4450520        0.9612850
 Cl       -0.9756780        4.9872430       -2.2135030
 Cl       -1.9111240        4.7756660        0.5865660
 H        3.4074080        2.2472820       -0.2323050
 N        0.5482970        2.5204030        3.5322590
 O        0.4582670        2.0650250        4.7305610
 O       -0.3837580        3.1704370        2.9431450
 H        5.0686610        1.5628830        3.7032010
 H       -3.0176080        1.9130810        0.6861230
 N       -1.5004710        2.1545360       -3.7694330
 O       -0.3256820        1.6789890       -3.5502970
 O       -1.8685140        2.7005240       -4.8706750
