115
Mol_000254_2D_DFT last geometry from G09 out file
 Ru        0.3024340       -0.0182870       -0.7344660
 C       -1.0589550       -0.9023230       -1.5483140
 Cl        0.1563580       -1.1377910        1.3992050
 Cl        1.5352250        0.6192300       -2.7429870
 H       -2.0894140       -0.5901850       -1.7247040
 H       -0.7892340       -1.9255750       -1.8915710
 C       -0.3570230        1.7786140       -0.3205700
 N        0.4606340        2.6645900        0.3852270
 N       -1.4759320        2.4792260       -0.7529740
 C        1.6928650        2.2290230        1.0492770
 C        0.1232420        4.1187790       -0.0376300
 C        2.8098400        1.9037110        0.2372480
 C        1.8038950        2.0988780        2.4734110
 C        4.0144940        1.4363310        0.7874230
 C        4.1488280        1.2814900        2.1850980
 H        4.8417480        1.1847810        0.1211550
 C        3.0385240        1.6287880        2.9863350
 H        3.1344840        1.5136150        4.0665110
 C       -1.4762490        3.9330690       -0.1825820
 C       -2.6840210        1.8193640       -1.2348600
 C       -3.4410930        1.0942580       -0.2762730
 C       -3.1251040        1.8474050       -2.5931720
 C       -4.6386030        0.4477520       -0.6120880
 C       -5.1319660        0.5029030       -1.9399900
 H       -5.1874000       -0.0963460        0.1585050
 C       -4.3547350        1.1972180       -2.8912830
 H       -4.7103910        1.2204520       -3.9214680
 C       -6.4424480       -0.1790310       -2.3203120
 C       -6.3960710       -1.7378560       -2.3448270
 H       -7.2220210        0.1228110       -1.5996610
 H       -6.7752560        0.1800420       -3.3073230
 C       -5.5353020       -2.3472980       -3.4769320
 H       -6.0333160       -2.1080530       -1.3711130
 H       -7.4323670       -2.1051200       -2.4487110
 C       -5.5375190       -3.8924860       -3.4721520
 H       -4.4974550       -1.9870580       -3.3896260
 H       -5.9097040       -1.9860900       -4.4513830
 H       -5.1317850       -4.2884200       -2.5273600
 H       -4.9217300       -4.2921350       -4.2932170
 H       -6.5570950       -4.2930470       -3.5925190
 C        0.8798660        4.3294220       -1.4125250
 C        0.9303940        5.7082620       -2.1289890
 H        0.5138040        3.5817760       -2.1257620
 H        1.9206620        4.0496230       -1.2090980
 C        2.0145770        5.7143500       -3.2343990
 H        1.1447560        6.5227980       -1.4224610
 H       -0.0321990        5.9501190       -2.5972120
 H        1.8382580        4.9155970       -3.9717690
 H        2.0220500        6.6750280       -3.7734160
 H        3.0203210        5.5583160       -2.8131720
 C        0.5467190        5.1944390        1.0117980
 C        2.0451600        5.5909810        1.1446080
 H        0.1996130        4.8941420        2.0046140
 H       -0.0100690        6.1079400        0.7632030
 C        2.2175500        6.8577860        2.0163080
 H        2.4940990        5.7869750        0.1630520
 H        2.6214650        4.7690280        1.5858300
 H        3.2837080        7.1058800        2.1361880
 H        1.7214930        7.7304920        1.5610260
 H        1.7934720        6.7239220        3.0236750
 C       -2.1918050        4.8886800       -1.1803680
 C       -2.3034470        6.3933170       -0.8090270
 H       -3.2127890        4.5051470       -1.3078160
 H       -1.7183170        4.8086450       -2.1615090
 C       -3.2537950        7.1509190       -1.7662590
 H       -1.3183330        6.8752640       -0.8486430
 H       -2.6683470        6.5191040        0.2197090
 H       -4.2763140        6.7430920       -1.7254380
 H       -3.3089740        8.2178910       -1.4992760
 H       -2.9106870        7.0873740       -2.8109630
 C       -2.2020460        3.9564560        1.2214190
 C       -3.7521720        4.0508930        1.2943300
 H       -1.8223880        4.8187230        1.7843140
 H       -1.8859530        3.0655130        1.7776750
 C       -4.2495030        3.9135080        2.7530660
 H       -4.2323840        3.2800260        0.6830220
 H       -4.0977480        5.0181400        0.9022410
 H       -3.9856110        2.9320940        3.1786420
 H       -3.8116390        4.6873010        3.4046830
 H       -5.3448530        4.0156090        2.8048840
 H        2.7277820        1.9992300       -0.8407250
 C        0.6872720        2.4332890        3.4801240
 C        1.1156870        3.5372290        4.4924770
 C        0.1800800        1.1874500        4.2614010
 H       -0.1651480        2.8170450        2.9117660
 H        0.2524490        3.8365350        5.1077390
 H        1.5074310        4.4327810        3.9944170
 H        1.8943940        3.1725620        5.1780640
 H        0.9744830        0.7500430        4.8842800
 H       -0.1787960        0.4082440        3.5813120
 H       -0.6442410        1.4804620        4.9317250
 C        5.4205220        0.7157790        2.8023580
 C        5.4153310       -0.8396590        2.8871200
 H        6.2955290        1.0319120        2.2105790
 H        5.5596220        1.1232710        3.8173390
 C        6.7073890       -1.4177060        3.5114880
 H        4.5419330       -1.1667450        3.4756690
 H        5.2774240       -1.2557000        1.8750380
 C        6.7055730       -2.9604940        3.5950560
 H        6.8434140       -0.9982200        4.5244000
 H        7.5791710       -1.0859680        2.9196910
 H        5.8669780       -3.3254390        4.2092530
 H        7.6389260       -3.3362210        4.0438480
 H        6.6077240       -3.4134410        2.5956050
 H       -3.0632230        1.0269480        0.7422380
 C       -2.3255990        2.4602070       -3.7567430
 C       -3.1265700        3.5377010       -4.5427560
 C       -1.8159100        1.3614780       -4.7355200
 H       -1.4334930        2.9377390       -3.3356750
 H       -3.5294400        4.3184910       -3.8841590
 H       -3.9712850        3.0951260       -5.0908120
 H       -2.4732970        4.0208560       -5.2859620
 H       -1.1737900        0.6370290       -4.2223270
 H       -1.2177880        1.8242130       -5.5356260
 H       -2.6501190        0.8221670       -5.2088930
