94
Mol_000353_2D_DFT last geometry from G09 out file
 Ru        0.1857020       -0.2161090        0.0195750
 C       -1.0889310       -1.0021320       -1.0079270
 Cl       -0.5987870       -1.0222660        2.1640010
 Cl        1.9347610       -0.1785640       -1.6597230
 H       -1.9584390       -0.5600580       -1.4972220
 H       -0.9414100       -2.0946320       -1.1527220
 C       -0.2791830        1.6915180        0.0859610
 N        0.5918860        2.6048560        0.6804780
 N       -1.3704850        2.4024180       -0.4014950
 C        0.2159670        4.0107140        0.3046340
 C        1.8605140        2.2720400        1.3296320
 C       -1.3378390        3.9112910        0.0027600
 H        0.6824260        4.2141310       -0.6718130
 C        3.0787320        2.4322340        0.6018110
 C        1.8633050        1.8697840        2.7003650
 C        4.3107270        2.1102740        1.2370050
 C        4.3170060        1.5817950        2.5598090
 C        3.1037860        1.4996100        3.3012120
 C       -2.4441620        1.8396500       -1.2098460
 C       -3.6194270        1.3225780       -0.5841780
 C       -2.2948160        1.8156590       -2.6325800
 C       -4.7061280        0.8989480       -1.4053030
 C       -4.5928150        0.9255700       -2.8253560
 C       -3.3829940        1.3660110       -3.4386760
 C        0.7391320        5.1062810        1.2312920
 C        1.3894530        6.2294680        0.6595050
 N        0.5896190        4.9791800        2.5829610
 C        1.8832900        7.2501920        1.4965920
 H        1.5143820        6.3011770       -0.4210160
 C        1.7338850        7.1168510        2.8922560
 H        2.3822280        8.1212450        1.0694950
 C        1.0846340        5.9624940        3.3811580
 H        2.1099080        7.8739300        3.5807450
 H        0.9518980        5.8133120        4.4549760
 C       -1.6580190        4.9005350       -1.1683400
 C       -3.1119260        5.0825340       -1.6802050
 H       -1.0201490        4.6490800       -2.0258060
 H       -1.3100230        5.8855060       -0.8158780
 C       -3.2140100        6.2626810       -2.6753300
 H       -3.8015340        5.2656140       -0.8451810
 H       -3.4626970        4.1706030       -2.1741380
 H       -2.5600100        6.1113760       -3.5493870
 H       -4.2446010        6.3721370       -3.0476610
 H       -2.9261120        7.2168880       -2.2045790
 C       -2.2831650        4.1313470        1.2308040
 C       -2.5681150        5.5781040        1.7208390
 H       -1.8886210        3.5555870        2.0767390
 H       -3.2495860        3.6876150        0.9670670
 C       -3.4682290        5.5704450        2.9792360
 H       -3.0693750        6.1647550        0.9377760
 H       -1.6399350        6.1066410        1.9613130
 H       -2.9820880        5.0392910        3.8122900
 H       -3.6833960        6.5972670        3.3151960
 H       -4.4328140        5.0746330        2.7831520
 C        3.0971650        2.9343050       -0.8350390
 H        2.1354150        2.7924340       -1.3292580
 H        3.8276890        2.3824490       -1.4360590
 H        3.3686290        4.0032710       -0.8817370
 C        0.5967610        1.8627770        3.5392820
 H        0.6783900        2.5998880        4.3519370
 H        0.4102760        0.8773780        3.9803960
 H       -0.2782150        2.1294280        2.9505180
 C        5.6222270        2.3141900        0.4839050
 H        6.4686730        2.4554810        1.1654930
 H        5.5829680        3.1977140       -0.1655480
 H        5.8583140        1.4500190       -0.1614570
 C        5.6271710        1.1030680        3.1801440
 H        6.1942700        1.9322600        3.6389190
 H        6.2799600        0.6389500        2.4300520
 H        5.4573430        0.3553770        3.9621470
 C        3.1381740        1.0184370        4.7494750
 H        3.9896800        1.4426870        5.2996540
 H        3.2291560       -0.0802620        4.8018190
 H        2.2311930        1.2870930        5.2975930
 C       -3.7010460        1.1057200        0.9212160
 H       -2.7491680        1.2939360        1.4151500
 H       -3.9667380        0.0612530        1.1376460
 H       -4.4664250        1.7377260        1.3975420
 C       -0.9785520        2.1988970       -3.2969110
 H       -0.2012130        2.4170790       -2.5655450
 H       -1.0866740        3.0740380       -3.9565050
 H       -0.6011100        1.3707390       -3.9135960
 C       -5.9914780        0.3841040       -0.7650230
 H       -6.8794350        0.7177330       -1.3181380
 H       -6.1057770        0.7247040        0.2686630
 H       -6.0203390       -0.7194830       -0.7457110
 C       -5.7654690        0.4421610       -3.6734400
 H       -6.5801740        1.1865280       -3.6929300
 H       -6.1943440       -0.4869980       -3.2731000
 H       -5.4817680        0.2459050       -4.7111830
 C       -3.2616400        1.3545640       -4.9611930
 H       -2.3474350        1.8386970       -5.3129960
 H       -4.1066910        1.8765380       -5.4347230
 H       -3.2539860        0.3260290       -5.3587350
