67
Mol_000351_2D_DFT last geometry from G09 out file
 Ru        0.2835870       -0.2425920        0.4441400
 C       -1.1085710       -1.1297800       -0.3133920
 Cl       -0.4350920       -0.1469480        2.7600830
 Cl        1.9332590       -0.7277180       -1.2528550
 H       -1.9284250       -0.7399130       -0.9210160
 H       -1.0868860       -2.2304870       -0.1597170
 C       -0.0678430        1.6347990        0.0699480
 N        0.9183250        2.5974100        0.2713550
 N       -1.2417000        2.2955070       -0.2689060
 C        2.1660460        2.3589010        0.9912470
 C        0.4343770        4.0002100       -0.1274570
 C        3.4401300        2.2716390        0.3542400
 C        2.0885460        2.2580260        2.4043520
 C        4.5766600        2.0845640        1.1826160
 C        4.5108290        1.9745720        2.5891200
 H        5.5516550        2.0066850        0.6960800
 C        3.2338130        2.0632340        3.1922500
 H        3.1284990        1.9744740        4.2748790
 C       -1.1324680        3.8002010        0.0394610
 C       -2.3568230        1.7392850       -1.0111950
 C       -3.5877070        1.3489550       -0.4065190
 C       -2.1997120        1.6064820       -2.4145540
 C       -4.6231590        0.8849900       -1.2604260
 C       -4.4885840        0.7759710       -2.6627970
 H       -5.5645600        0.5781220       -0.7987110
 C       -3.2396750        1.1306760       -3.2300380
 H       -3.0770410        1.0296460       -4.3046730
 C       -5.6463270        0.3013580       -3.5329090
 C       -6.5304820        1.4640980       -4.0626350
 H       -6.2819840       -0.3932670       -2.9610070
 H       -5.2556130       -0.2652240       -4.3933740
 H       -6.9753240        2.0345340       -3.2333490
 H       -7.3500050        1.0723180       -4.6852610
 H       -5.9426940        2.1642040       -4.6752310
 C        0.8415950        4.2978130       -1.5979740
 H        0.4922430        3.5197600       -2.2868840
 H        1.9295550        4.3605540       -1.6809930
 H        0.4327320        5.2635810       -1.9236580
 C        1.0338400        5.0982340        0.7790410
 H        0.5841860        6.0693930        0.5275140
 H        2.1156540        5.1815910        0.6133170
 H        0.8753850        4.9088970        1.8444530
 C       -1.9890920        4.6627120       -0.9127710
 H       -1.7998330        5.7265920       -0.7109160
 H       -3.0572340        4.4791350       -0.7389770
 H       -1.7863990        4.4709750       -1.9702490
 C       -1.6135750        4.0489380        1.4975110
 H       -2.6787280        3.8153490        1.5832000
 H       -1.4862640        5.1043240        1.7731640
 H       -1.0724980        3.4278700        2.2200560
 C        3.6671350        2.3504400       -1.1457250
 H        2.7692170        2.0990460       -1.7130320
 H        4.4491320        1.6399680       -1.4447770
 H        4.0102490        3.3552830       -1.4441090
 H        1.1142020        2.3070490        2.8827380
 C        5.7620730        1.7172510        3.4196330
 C        6.0391300        0.2049820        3.6463930
 H        5.6643540        2.2093870        4.4009580
 H        6.6381430        2.1674550        2.9255940
 H        6.9490330        0.0653660        4.2511720
 H        6.1795170       -0.3199460        2.6897400
 H        5.2016970       -0.2775450        4.1719190
 C       -3.8333540        1.3448220        1.0934690
 H       -2.9030410        1.3019130        1.6652640
 H       -4.4378510        0.4707370        1.3751860
 H       -4.3979140        2.2361760        1.4124870
 H       -1.2382420        1.8595630       -2.8600930
