75
Mol_000348_2D_DFT last geometry from G09 out file
 Ru        0.1399180       -0.0021140        0.0952130
 C       -1.2992760       -0.7200050       -0.7529890
 Cl       -0.4325470       -0.4268400        2.3868950
 Cl        1.8558770       -0.5792410       -1.4899310
 H       -2.0787320       -0.2167430       -1.3290680
 H       -1.3665940       -1.8263890       -0.7004990
 C       -0.1081450        1.9303730       -0.1366560
 N        0.9203140        2.8364730        0.1946350
 N       -1.1702040        2.6830610       -0.6592650
 C        0.6258420        4.2576630       -0.2231680
 C        2.1828220        2.4221860        0.8217390
 C        0.7641310        5.3589510        0.8724150
 C       -0.7716240        4.1329120       -0.9075480
 H        1.3517420        4.5175320       -0.9977010
 C       -0.5181930        5.7760790        1.5559360
 H        1.5211270        5.0668280        1.6077720
 H        1.1852470        6.2476880        0.3657690
 C       -1.7084230        5.7188630        0.9181980
 H       -0.4487770        6.1458870        2.5807780
 C       -1.8163500        5.2113760       -0.5037280
 H       -2.6217880        6.0543380        1.4141600
 H       -2.8272560        4.8397350       -0.7157550
 H       -1.6703020        6.0586300       -1.1996290
 H       -0.6292920        4.2368440       -1.9877520
 C        2.1679700        2.1170500        2.2348730
 C        3.4297710        2.2438240        0.0955500
 C        3.2384110        1.4374430        2.8564540
 C        4.3625970        1.0919120        2.1046070
 H        3.1804280        1.1884150        3.9127310
 C        4.4594100        1.5433470        0.7836060
 H        5.3787130        1.3202350        0.2569350
 C       -2.4075150        2.2229990       -1.2971540
 C       -2.4202910        2.0750060       -2.7405450
 C       -3.6493990        2.0172880       -0.5851700
 C       -3.6003440        1.7682670       -3.4502750
 C       -4.7990800        1.5703230       -2.7574700
 H       -3.5720600        1.6687940       -4.5322760
 C       -4.7969120        1.6858560       -1.3673430
 H       -5.7381030        1.5188720       -0.8527510
 C        1.1828800        2.6723440        3.2486040
 F       -0.1058340        2.9722390        2.8195770
 F        1.7048330        3.9271480        3.7624680
 F        1.0424590        1.8674160        4.3977310
 C        3.8741330        2.8660010       -1.2885250
 C        2.8506480        2.7909440       -2.4525030
 C        4.2654420        4.3580920       -0.9928990
 C        5.1596770        2.1792080       -1.8644470
 H        1.8814160        3.2218760       -2.2236070
 H        2.6811820        1.7525180       -2.7500990
 H        3.2561170        3.3370270       -3.3174570
 H        3.4199020        4.9597770       -0.6396100
 H        4.6508340        4.8265260       -1.9110730
 H        5.0534220        4.4138460       -0.2275150
 H        6.0651460        2.3759730       -1.2735820
 H        5.3482830        2.5875230       -2.8671900
 H        5.0255030        1.0939160       -1.9701690
 H        5.1756180        0.5205070        2.5524420
 C       -1.2292990        2.2531330       -3.6627840
 F        0.0203720        1.9495770       -3.1229450
 F       -1.1286820        3.6059760       -4.1561070
 F       -1.3319660        1.4614020       -4.8334980
 C       -3.9880880        2.0845560        0.9520490
 C       -2.8305030        2.4359260        1.9063490
 C       -5.1080290        3.1614350        1.1737400
 C       -4.5225580        0.6805070        1.4064540
 H       -2.0414180        1.6877080        1.8807010
 H       -3.2195810        2.4553080        2.9351710
 H       -2.3986690        3.4151390        1.7037310
 H       -4.7648470        4.1598770        0.8665030
 H       -5.3521860        3.2071340        2.2449350
 H       -6.0403330        2.9464540        0.6349200
 H       -4.7837540        0.7262350        2.4736500
 H       -3.7462700       -0.0869800        1.2898550
 H       -5.4183360        0.3532070        0.8618370
 H       -5.7160290        1.3269040       -3.2938010
