55
Mol_000347_2D_DFT last geometry from G09 out file
 Ru       -0.2199890       -0.1747310        0.0262000
 C        1.4937930       -0.5175050        0.5203530
 Cl       -0.0423510       -0.5308310       -2.3508640
 Cl       -1.3674700       -0.4560450        2.1430410
 H        2.3103620        0.1837640        0.7097350
 H        1.7355950       -1.5981190        0.6177650
 C       -0.3262820        1.7621120       -0.0007040
 N        0.5119920        2.7542440        0.4869630
 N       -1.4495750        2.4007130       -0.5216880
 C       -0.0052610        4.1260290        0.1902740
 C        1.8632080        2.6563540        0.9925690
 C       -1.4672320        3.8577760       -0.2079780
 H        0.5773220        4.5760350       -0.6304420
 H        0.0853640        4.7716500        1.0732100
 H       -1.7851630        4.4455740       -1.0771090
 C        2.1178550        2.6346290        2.3930710
 C        2.9346060        2.6911120        0.0709280
 C        3.4717730        2.6262870        2.8110020
 C        4.5597860        2.6458960        1.9046500
 H        3.6807470        2.6048940        3.8825190
 C        4.2684800        2.6824300        0.5187190
 H        5.0806540        2.7037330       -0.2101450
 C       -2.6416580        1.7854370       -1.0755620
 C       -2.9250290        1.8936690       -2.4682900
 C       -3.5619080        1.1569940       -0.2062410
 C       -4.1354790        1.3296710       -2.9349290
 C       -5.0591870        0.6729540       -2.0858620
 H       -4.3573830        1.3950240       -4.0021500
 C       -4.7527420        0.5987740       -0.7067970
 H       -5.4412820        0.1060060       -0.0180180
 C       -1.9771280        2.5696930       -3.4431160
 H       -0.9438190        2.2390800       -3.2815870
 H       -2.0013410        3.6681420       -3.3466240
 H       -2.2497730        2.3297060       -4.4791780
 H       -3.3352490        1.0930470        0.8556330
 H       -2.1696370        4.0512450        0.6200020
 C       -6.3220360        0.0317640       -2.6485600
 C       -6.1182450       -1.4538730       -3.0565640
 H       -6.6676330        0.5963650       -3.5295710
 H       -7.1305130        0.0852860       -1.9016230
 H       -5.8094790       -2.0632340       -2.1941910
 H       -5.3403860       -1.5503630       -3.8285620
 H       -7.0534320       -1.8761030       -3.4569660
 C        0.9966570        2.6079320        3.4165130
 H        1.3989430        2.6084700        4.4380930
 H        0.3663550        1.7166100        3.2970100
 H        0.3332370        3.4816650        3.3198180
 H        2.7147930        2.7067720       -0.9974430
 C        5.9986340        2.5977020        2.4057360
 C        6.5483040        1.1513110        2.5489970
 H        6.0695960        3.1006980        3.3833960
 H        6.6508590        3.1565160        1.7155210
 H        6.5342670        0.6226150        1.5840890
 H        5.9475340        0.5663840        3.2614680
 H        7.5875470        1.1684430        2.9127890
