93
Mol_000350_2D_DFT last geometry from G09 out file
 Ru        0.0207980       -0.1342390       -0.3026920
 C        1.6501040       -0.2935020       -1.0904890
 Cl       -1.3378460       -1.0673850       -2.0746880
 Cl        0.3417660       -0.7872870        1.9859140
 H        2.2060700        0.5126920       -1.5712240
 H        2.0849940       -1.3100660       -1.1536260
 C       -0.0786420        1.8492620       -0.2455340
 N        0.8123840        2.7680540        0.3379070
 N       -1.1298570        2.5809620       -0.7992580
 C        1.9288650        2.4516230        1.2446370
 C        0.4603920        4.2147960       -0.0909790
 C        3.2433180        2.1740670        0.7357720
 C        1.7411880        2.4450190        2.6754280
 C        4.2556810        1.7370830        1.6262130
 C        4.0611060        1.6230870        3.0118000
 H        5.2279580        1.4723580        1.2072490
 C        2.8090370        2.0312210        3.5096230
 H        2.6305820        2.0012590        4.5845250
 C       -1.0905620        4.0624540       -0.3629380
 C       -2.2805590        2.0921830       -1.5620820
 C       -3.4392600        1.5924900       -0.8835200
 C       -2.3131990        2.2508790       -2.9902130
 C       -4.6223950        1.3742440       -1.6300180
 C       -4.6976920        1.5749740       -3.0200650
 H       -5.5112210        1.0252820       -1.1036480
 C       -3.5232710        1.9920380       -3.6778790
 H       -3.5305330        2.0949880       -4.7630160
 C       -5.9747300        1.2942630       -3.7936670
 H       -6.0734710        1.9525090       -4.6690730
 H       -6.8672590        1.4268010       -3.1654180
 H       -5.9867090        0.2552930       -4.1642900
 C        1.2380340        4.5919610       -1.3822790
 H        1.0753140        3.8777270       -2.1932920
 H        2.3064660        4.6572360       -1.1685130
 H        0.9261650        5.5845150       -1.7312640
 C        0.8080530        5.2714080        0.9769710
 H        0.2958200        5.1144810        1.9242000
 H        0.5322820        6.2651090        0.5960370
 H        1.8892570        5.2831270        1.1670630
 C       -1.6306640        5.0329330       -1.4375720
 H       -1.1418900        4.9296580       -2.4048230
 H       -1.4876930        6.0645570       -1.0850430
 H       -2.7083060        4.8827260       -1.5782100
 C       -1.9703110        4.2632170        0.9001310
 H       -3.0136200        4.0315010        0.6608390
 H       -1.9378600        5.3141710        1.2171680
 H       -1.6561850        3.6413220        1.7382960
 C        3.7046320        2.3309590       -0.7158430
 C        4.7806280        3.4404910       -0.9193070
 H        2.8652150        2.5265660       -1.3857180
 H        4.1622460        1.3832530       -1.0442510
 C        5.2390690        3.5593680       -2.3900560
 H        5.6550940        3.2247660       -0.2859790
 H        4.3921620        4.4119210       -0.5736180
 H        4.4015050        3.8186330       -3.0565490
 H        6.0076850        4.3403490       -2.4997820
 H        5.6721260        2.6123640       -2.7507740
 C        0.5416110        2.9065580        3.4795430
 C       -0.6394670        2.1448750        3.6497330
 C        0.6910250        4.0809440        4.2701850
 C       -1.6423510        2.5541320        4.5564850
 H       -0.7504730        1.2109120        3.1095800
 C       -1.4906900        3.7325360        5.3160230
 H       -2.5351050        1.9380410        4.6770280
 C       -0.3127060        4.4968230        5.1681430
 H       -2.2660510        4.0420160        6.0193040
 H       -0.1685800        5.4049760        5.7568610
 H        1.6061800        4.6688900        4.1829550
 C        5.1394950        1.0821470        3.9330580
 H        4.9755240        0.0100440        4.1339250
 H        5.1393090        1.5966740        4.9052800
 H        6.1416720        1.1843480        3.4930470
 C       -3.4950290        1.2569980        0.6109780
 C       -3.9570160       -0.1973170        0.9273220
 H       -4.1997580        1.9455940        1.1095510
 H       -2.5224620        1.4229560        1.0820160
 C       -4.0336290       -0.4821380        2.4435480
 H       -3.2736460       -0.9138650        0.4504460
 H       -4.9483860       -0.3796830        0.4847300
 H       -4.7211220        0.2147100        2.9515010
 H       -4.4003830       -1.5044900        2.6250920
 H       -3.0457460       -0.3997210        2.9193280
 C       -1.1555360        2.6339800       -3.8763350
 C        0.0227900        1.8484470       -3.9545420
 C       -1.2884190        3.7217700       -4.7828790
 C        1.0346460        2.1512680       -4.8903620
 H        0.1207250        0.9749820       -3.3179450
 C        0.8967170        3.2451080       -5.7714350
 H        1.9217090        1.5165230       -4.9443090
 C       -0.2752180        4.0303590       -5.7131240
 H        1.6791130        3.4733970       -6.4975600
 H       -0.4040380        4.8750760       -6.3927820
 H       -2.1918650        4.3332040       -4.7555780
