73
Mol_000142_2D_DFT last geometry from G09 out file
 Ru       -0.0037540        0.3490340        0.6573300
 C       -0.8223750       -0.5109320       -0.7526740
 Cl       -1.9189580        0.0304330        2.1888770
 Cl        2.2198640        0.0068490       -0.3497970
 H       -1.2278870       -0.1208370       -1.6934180
 H       -0.8903460       -1.6175050       -0.6693680
 C       -0.1878090        2.1823230        0.1452880
 N        0.7408490        3.1812820        0.5368180
 N       -1.1733420        2.8442930       -0.5882880
 C        0.4027710        4.4891050       -0.0850670
 C        2.0126100        3.0160560        1.1575140
 C       -1.0997870        4.3533620       -0.3979950
 H        0.9772000        4.6390650       -1.0135640
 H        0.6231600        5.3081850        0.6083810
 C       -2.0078100        4.8516990        0.7761200
 C       -1.5617120        5.2501730       -1.5726580
 C       -2.1591520        6.3848890        0.5557890
 H       -1.5892730        4.5963040        1.7588800
 H       -2.9849370        4.3577770        0.6990160
 C       -1.7346610        6.6504760       -0.9285560
 H       -3.1958420        6.7014770        0.7397540
 H       -1.5273420        6.9567470        1.2513330
 H       -0.7885540        7.2124670       -0.9640560
 H       -2.4788320        7.2500150       -1.4719890
 H       -2.5304880        4.8903110       -1.9427430
 H       -0.8628530        5.2428520       -2.4169110
 C        3.0736810        3.8744800        0.7662560
 C        2.2697310        2.0483940        2.1816020
 C        4.3560970        3.7680140        1.3230400
 C        4.6261960        2.7938390        2.3119070
 H        5.1371130        4.4376310        0.9665340
 C        3.5584930        1.9587040        2.7269870
 H        3.7830890        1.2295700        3.5002260
 C       -2.3190810        2.2567950       -1.2479350
 C       -2.4163000        2.1916860       -2.6904700
 C       -3.4013450        1.8262590       -0.4505340
 C       -3.6544660        1.7384870       -3.2246160
 C       -4.7435250        1.3330090       -2.4194660
 H       -3.7898230        1.6625230       -4.2998550
 C       -4.6017780        1.3601570       -1.0109080
 H       -5.4016870        1.0337150       -0.3499060
 H        2.9134090        4.6119090       -0.0159590
 N        1.1688250        1.2096560        2.6664230
 C        1.5941510       -0.0684960        3.3315300
 C        0.3172960        2.0115320        3.6225670
 H        0.6930700       -0.6698590        3.5006950
 H        2.0821410        0.1041230        4.3063550
 H        2.2787260       -0.6140280        2.6732780
 H       -0.5332300        1.4024620        3.9376250
 H       -0.0643660        2.9060210        3.1217220
 H        0.9144550        2.3160370        4.4997650
 C        5.9735550        2.6123150        2.9523190
 C        7.1485720        3.4698330        2.4798830
 O        6.1408660        1.7591680        3.8714080
 H        6.9514890        4.5417360        2.6382850
 H        8.0438280        3.1869380        3.0447040
 H        7.3411780        3.3227300        1.4057690
 N       -1.3811080        2.6029930       -3.5663770
 C        0.0030190        2.0961740       -3.4356930
 C       -1.7243610        2.9600800       -4.9543620
 H        0.2382320        1.8091670       -2.4137920
 H        0.7194970        2.8713430       -3.7509560
 H        0.1637700        1.2094920       -4.0793920
 H       -0.9047570        3.5629800       -5.3728180
 H       -2.6401450        3.5640570       -4.9863760
 H       -1.8615450        2.0812810       -5.6151940
 H       -3.2819120        1.8412050        0.6288580
 C       -6.0027240        0.8621990       -3.1084090
 C       -7.1609090        0.3321510       -2.2648640
 O       -6.1009620        0.9028580       -4.3677360
 H       -7.5431550        1.1077900       -1.5828100
 H       -7.9710040        0.0136550       -2.9303030
 H       -6.8450360       -0.5218630       -1.6462220
