56
Mol_000145_2D_DFT last geometry from G09 out file
 Ru       -0.1519690        0.1998750        0.8331190
 C       -1.3597100       -0.7163520       -0.1681650
 Cl       -1.3827830        0.4944030        2.8865160
 Cl        1.8962260       -0.4967990       -0.2080040
 H       -1.9826080       -0.3823870       -1.0003470
 H       -1.4485840       -1.7881130        0.1108400
 C       -0.1993720        2.0268410        0.1582090
 N        0.7958490        2.9357370        0.5228010
 N       -1.0838280        2.7245660       -0.6576310
 C        0.4597230        4.3277640        0.1198350
 C        1.8642270        2.6973100        1.4645120
 C       -0.5872990        4.1454370       -1.0102120
 H        1.3506260        4.8608300       -0.2149900
 H        0.0318150        4.8636080        0.9833530
 C        0.0533070        4.1632270       -2.4349830
 C       -1.7116050        5.2130190       -0.9401450
 C        0.5551200        5.5687550       -2.8534550
 H        0.8742250        3.4364720       -2.4862720
 H       -0.7106350        3.8505060       -3.1613090
 C       -0.5612300        6.6312970       -2.7446180
 H        1.4172530        5.8712760       -2.2373010
 H        0.9290460        5.5126690       -3.8887400
 C       -1.2002340        6.6221000       -1.3379010
 H       -1.3398520        6.4269340       -3.5004080
 H       -0.1564570        7.6312110       -2.9699870
 H       -2.0478630        7.3252680       -1.2982950
 H       -0.4665760        6.9823680       -0.5968310
 H       -2.1393960        5.2465070        0.0689380
 H       -2.5211660        4.9336840       -1.6313310
 C        1.5211710        2.4545850        2.8141380
 C        3.2458610        2.7595760        1.1047680
 C        2.5100990        2.2252510        3.7908930
 C        3.8695880        2.2671000        3.4315900
 H        2.2111770        2.0197590        4.8192320
 C        4.2284570        2.5446220        2.0989650
 H        5.2804860        2.5773340        1.8238390
 C       -2.2425520        2.1705910       -1.3116120
 C       -2.0623960        1.5835480       -2.5907020
 C       -3.5600500        2.2169580       -0.7687240
 C       -3.1420890        1.0663500       -3.3282080
 C       -4.4430900        1.1168920       -2.7875300
 H       -2.9648580        0.6188290       -4.3068290
 C       -4.6415510        1.6829780       -1.5171360
 H       -5.6446560        1.7120360       -1.0941310
 C       -3.9652380        2.8264150        0.5606550
 F       -4.7793500        3.9924810        0.3474270
 F       -2.9372950        3.2378110        1.4118710
 F       -4.7805730        1.9439190        1.3096420
 H       -5.2924000        0.7164010       -3.3412830
 H        0.4710140        2.4345590        3.0929830
 C        3.7459830        3.0984990       -0.2815080
 F        2.9988840        2.5779860       -1.3500450
 F        5.0771020        2.6860350       -0.4986460
 F        3.7630120        4.5283380       -0.4954290
 H        4.6474050        2.0901640        4.1746370
 H       -1.0514880        1.5081710       -2.9847570
