73
M00000168_2D_DFT last geometry from G09 out file
 Ru        0.5805050        0.3570040       -0.5196950
 C       -0.8905510       -0.5220430       -1.1115030
 Cl        0.5325000       -0.2849010        1.8068950
 Cl        1.6172990        0.5822640       -2.7126630
 H       -1.8687420       -0.1391400       -1.4054150
 H       -0.7286780       -1.6160700       -1.2328570
 C        0.1253630        2.2390570       -0.3199170
 N        1.1218730        3.1432310        0.0774940
 N       -1.0287300        2.9525180       -0.5984870
 C        0.6954100        4.5857450       -0.1635150
 C        2.1218010        2.8529360        1.1280570
 C       -0.8476130        4.4605590       -0.4377840
 H        0.8665210        5.1285530        0.7736220
 H       -1.0773130        4.9015820       -1.4156480
 C        1.6855500        3.0898190        2.4584150
 C        3.4614920        2.4181490        0.8945320
 C        2.5437130        2.9533080        3.5590690
 C        3.8806530        2.5638370        3.3397440
 H        2.1702160        3.1309410        4.5685960
 C        4.3098790        2.2967060        2.0304380
 H        5.3416800        1.9828430        1.8708420
 C       -2.1646770        2.4380320       -1.3605500
 C       -2.1647890        2.6881740       -2.7534090
 C       -3.2556470        1.7420990       -0.7507670
 C       -3.2486990        2.3056600       -3.5646810
 C       -4.3512580        1.6564710       -2.9742600
 H       -3.2234580        2.5007040       -4.6375970
 C       -4.3377300        1.3762010       -1.5938160
 H       -5.1869650        0.8502730       -1.1604640
 H       -1.2973350        3.1643810       -3.2057420
 C       -3.2865460        1.3876230        0.7392290
 C       -4.0335620        0.0883870        1.1243690
 H       -3.7548890        2.2191420        1.2923390
 H       -2.2596520        1.3117210        1.1116520
 H       -5.1166490        0.1484480        0.9419430
 H       -3.8940390       -0.1020200        2.1991020
 H       -3.6414460       -0.7838470        0.5820520
 C        1.5455450        5.3423550       -1.2881210
 C        2.9942630        5.5772250       -0.7655310
 C        1.5877390        4.5603260       -2.6289420
 C        0.9617050        6.7595750       -1.5802260
 H        2.9921290        6.1117820        0.1972950
 H        3.5527480        6.1945860       -1.4850480
 H        3.5460210        4.6469310       -0.6335960
 H        1.9228700        3.5277390       -2.5033700
 H        2.2788570        5.0589250       -3.3251070
 H        0.6039510        4.5378520       -3.1194970
 H        1.5876430        7.2429660       -2.3448770
 H        0.9726420        7.4056600       -0.6926750
 H       -0.0613080        6.7317660       -1.9770150
 H       -5.2063570        1.3558110       -3.5820000
 C       -1.8330030        5.1805230        0.5995490
 C       -1.7919960        4.5568670        2.0224780
 C       -1.4628070        6.6902140        0.7462080
 C       -3.2939140        5.1625420        0.0494220
 H       -0.8859800        4.8571570        2.5652740
 H       -1.8371230        3.4646550        2.0030890
 H       -2.6479640        4.9196480        2.6108530
 H       -1.5709140        7.2381510       -0.1985940
 H       -0.4449770        6.8469900        1.1239020
 H       -2.1500920        7.1491430        1.4724300
 H       -3.7409040        4.1670070        0.0445010
 H       -3.3398400        5.5552170       -0.9778470
 H       -3.9286980        5.8066830        0.6762710
 H        0.6483120        3.3571090        2.6287840
 C        4.0659220        2.0854480       -0.4695120
 C        4.7013920        0.6726460       -0.5641090
 H        4.8569340        2.8225090       -0.6941020
 H        3.3146530        2.1788020       -1.2565370
 H        5.0518110        0.4956900       -1.5915190
 H        3.9737720       -0.1128800       -0.3210330
 H        5.5619410        0.5575520        0.1107090
 H        4.5734440        2.4569790        4.1760750
