71
M00000171_2D_DFT last geometry from G09 out file
 Ru        0.6546950        0.3151490       -0.8801330
 C       -0.9082160       -0.6075070       -0.6236770
 Cl        1.5338380       -0.6686890        1.2124050
 Cl        0.5658310        0.6080010       -3.3088240
 H       -1.7952980       -0.2969660       -0.0685580
 H       -0.9159100       -1.6685240       -0.9537040
 C        0.1574050        2.1021190       -0.3523000
 N        1.1256520        3.0104720        0.1354070
 N       -1.0136090        2.8387910       -0.5555070
 C        0.7252140        4.4481030       -0.0987510
 C        2.1333750        2.6968890        1.1372830
 C       -0.8197990        4.3444230       -0.3655630
 H        0.9061850        5.0084940        0.8252220
 H       -1.0501680        4.8045970       -1.3364130
 C        1.8693160        3.1078160        2.4644750
 C        3.3951990        2.0792660        0.8574820
 C        2.8140640        2.9528010        3.4946000
 C        4.0721750        2.3834290        3.2123670
 H        2.5608260        3.2610460        4.5102520
 C        4.3478420        1.9568720        1.9043710
 H        5.3038340        1.4784870        1.6981500
 C       -2.1520380        2.3633940       -1.3387610
 C       -2.0883710        2.5927680       -2.7314710
 C       -3.3324010        1.7536490       -0.7878540
 C       -3.1346340        2.2259180       -3.5980140
 C       -4.2907590        1.6209210       -3.0718650
 H       -3.0292130        2.3903980       -4.6709230
 C       -4.3771020        1.3995120       -1.6869830
 H       -5.2742330        0.9243430       -1.2966500
 H       -1.1814390        3.0173070       -3.1480550
 C       -3.5461100        1.4569240        0.6802980
 C       -4.9739170        1.2173000        1.1910530
 O       -2.5921990        1.3922730        1.5011710
 H       -5.6923060        1.9584360        0.8135380
 H       -5.3336320        0.2187640        0.8942730
 H       -4.9516560        1.2519530        2.2863460
 C        1.6017870        5.1632360       -1.2336090
 C        3.0796260        5.2722310       -0.7491400
 C        1.5673840        4.4068480       -2.5889120
 C        1.1121630        6.6227550       -1.4794110
 H        3.1510230        5.7239210        0.2526220
 H        3.6484070        5.9108280       -1.4413750
 H        3.5780220        4.3001420       -0.7193270
 H        1.8257570        3.3491800       -2.4886990
 H        2.2878090        4.8657350       -3.2830930
 H        0.5815300        4.4725020       -3.0696620
 H        1.7426350        7.0802010       -2.2562760
 H        1.1953440        7.2477040       -0.5795610
 H        0.0764630        6.6704360       -1.8387130
 H       -5.1083160        1.3169840       -3.7267360
 C       -1.7715100        5.0814360        0.6906150
 C       -1.6715720        4.4993550        2.1284220
 C       -1.4025420        6.5971740        0.7663580
 C       -3.2553590        5.0446280        0.2087340
 H       -1.6916940        3.4063800        2.1371390
 H       -2.5190070        4.8581760        2.7321670
 H       -0.7605060        4.8443170        2.6367610
 H       -1.5540110        7.1108120       -0.1928210
 H       -0.3701750        6.7715500        1.0920200
 H       -2.0589500        7.0797580        1.5055250
 H       -3.3480630        5.3336520       -0.8493580
 H       -3.8478470        5.7595970        0.7988980
 H       -3.7179230        4.0647520        0.3318520
 H        0.8960500        3.5242710        2.6999170
 C        3.7298940        1.5037860       -0.4729250
 C        5.1770870        1.4197630       -0.9423790
 O        2.8287430        1.0449440       -1.2378050
 H        5.7679630        2.3008000       -0.6592390
 H        5.6605600        0.5307540       -0.5040770
 H        5.1849930        1.2944820       -2.0314740
 H        4.8139980        2.2528800        4.0008740
