95
M00000170_2D_DFT last geometry from G09 out file
 Ru        0.6426820        0.3325000       -1.1346790
 C       -0.7672860       -0.4531700       -1.9622640
 Cl        0.6214770       -0.9253360        0.9220260
 Cl        1.7025340        1.1237340       -3.1820600
 H       -1.7656440       -0.0758830       -2.1888280
 H       -0.5314570       -1.4759500       -2.3295740
 C        0.0936890        2.0851210       -0.4502100
 N        0.9483610        2.8207660        0.3858210
 N       -0.9916050        2.8875940       -0.7754230
 C        0.5504990        4.2965370        0.4632340
 C        1.9170500        2.2461310        1.3421860
 C       -0.8551510        4.3329740       -0.2709270
 H        0.4237370        4.5447890        1.5246360
 H       -0.7480890        4.9582160       -1.1649470
 C        1.5314450        2.1125110        2.7239470
 C        3.2408070        1.8713890        0.9401280
 C        2.5039690        1.7386140        3.6731590
 C        3.8084510        1.4253960        3.2700540
 H        2.2516990        1.6625160        4.7253690
 C        4.1686530        1.4528620        1.9199140
 H        5.1770090        1.1698320        1.6265430
 C       -2.1003030        2.4756510       -1.6271110
 C       -2.2037390        2.9870430       -2.9665840
 C       -3.1139740        1.6060860       -1.0994940
 C       -3.3735280        2.7092610       -3.7059470
 C       -4.3944500        1.9236650       -3.1513340
 H       -3.4989770        3.0931190       -4.7126360
 C       -4.2648930        1.3524710       -1.8778980
 H       -5.0566830        0.7134510       -1.4930660
 C       -1.1020380        3.8195120       -3.6215850
 C       -0.8871880        3.5831820       -5.1412700
 H       -1.3249950        4.8920410       -3.4725130
 H       -0.1554580        3.6134770       -3.1155060
 C        0.3155030        4.3844930       -5.6966880
 H       -0.7180580        2.5096450       -5.3193630
 H       -1.7850220        3.8694390       -5.7123610
 C        0.5304980        4.1732910       -7.2115960
 H        1.2298130        4.0876130       -5.1571600
 H        0.1639270        5.4613030       -5.4986400
 H        1.3920790        4.7559860       -7.5733760
 H       -0.3526560        4.4864150       -7.7914810
 H        0.7246180        3.1136590       -7.4402690
 C       -3.0385100        0.8769570        0.2337970
 H       -2.1166320        1.0621780        0.7828840
 H       -3.0898560       -0.2088470        0.0659250
 H       -3.8964200        1.1380620        0.8709690
 C        1.6657520        5.3078950       -0.1078640
 C        2.9249280        5.2833190        0.8141310
 C        2.0683290        5.0050610       -1.5780690
 C        1.1748730        6.7886510       -0.0842730
 H        3.5871200        6.1198090        0.5468210
 H        3.5090810        4.3678080        0.7218140
 H        2.6529490        5.4081560        1.8735850
 H        1.2928670        5.3287520       -2.2840930
 H        2.2678250        3.9489220       -1.7613050
 H        2.9802380        5.5661580       -1.8301060
 H        1.9794550        7.4192740       -0.4899190
 H        0.9604990        7.1477440        0.9300030
 H        0.2936230        6.9575980       -0.7129420
 N       -5.6321660        1.6710910       -3.9418840
 O       -6.5412790        0.9237930       -3.4204580
 O       -5.7312940        2.2157320       -5.1036150
 C       -2.1254350        4.9561520        0.5073090
 C       -2.6480850        4.1084050        1.6947990
 C       -1.7893700        6.3601400        1.1015830
 C       -3.2988250        5.2030560       -0.4961960
 H       -1.9616360        4.1372030        2.5469730
 H       -2.8244270        3.0688460        1.4261710
 H       -3.6048950        4.5271680        2.0403680
 H       -2.6686060        6.7112900        1.6610940
 H       -1.5792270        7.1085250        0.3293470
 H       -0.9504390        6.3363980        1.8065280
 H       -3.8020900        4.2834130       -0.8047360
 H       -2.9596140        5.7311840       -1.3996010
 H       -4.0556390        5.8393930       -0.0143750
 C        0.1043320        2.3157410        3.2285200
 C       -0.3877830        1.2473510        4.2479380
 H        0.0204970        3.3093020        3.7051790
 H       -0.5780080        2.3125180        2.3768750
 C       -1.8672210        1.4373740        4.6626280
 H       -0.2546810        0.2472860        3.8087450
 H        0.2253540        1.2783210        5.1616890
 C       -2.3329170        0.3978360        5.7063230
 H       -2.5142170        1.3666110        3.7719360
 H       -2.0102510        2.4529340        5.0739510
 H       -1.7374540        0.4643840        6.6307160
 H       -2.2332140       -0.6279710        5.3181270
 H       -3.3890660        0.5532530        5.9772110
 C        3.7786090        1.8882720       -0.4785430
 H        4.6421440        2.5665000       -0.5571110
 H        3.0510380        2.1843340       -1.2279210
 H        4.1387740        0.8869010       -0.7564500
 N        4.8179800        1.0390920        4.2936270
 O        5.9991640        0.7234500        3.8921070
 O        4.4603190        1.0459780        5.5305650
