56
Mol_000225_2D_DFT last geometry from G09 out file
 Ru        0.1511160       -0.5313610       -0.3780540
 C        1.8893190       -0.3729800       -0.8863450
 Cl       -0.7889400       -1.0802140       -2.5261330
 Cl        0.2116360       -1.1351200        1.9473520
 H        2.3658440        0.5448710       -1.2482820
 H        2.4925870       -1.3022490       -0.9184270
 C       -0.2351620        1.3675640       -0.3059030
 N        0.6677970        2.4321030       -0.2519580
 N       -1.4998310        1.9163740       -0.4843900
 C        0.0447190        3.6923900       -0.7534340
 C        1.9035990        2.4828690        0.4701630
 C       -1.4726660        3.4222240       -0.6509760
 H        0.3514750        3.8641410       -1.7915560
 H        0.3426610        4.5299080       -0.1172690
 H       -1.9639190        3.6518170       -1.6071850
 C        1.8995290        1.9952630        1.8009210
 C        3.0886540        3.1152270       -0.0499950
 C        3.0348910        2.1035650        2.6203500
 C        4.1947960        2.7473460        2.1373020
 H        2.9988250        1.7129510        3.6381410
 C        4.2048520        3.2492750        0.8265150
 H        5.1095730        3.7328080        0.4645290
 C       -2.7423210        1.1951610       -0.6542480
 C       -3.2882030        1.1550540       -1.9572740
 C       -3.4303120        0.5527430        0.4241550
 C       -4.4986780        0.4904100       -2.2238100
 C       -5.1688660       -0.1764380       -1.1785830
 H       -4.8893120        0.4616080       -3.2416770
 C       -4.6272540       -0.1515690        0.1189530
 H       -5.1586720       -0.6670870        0.9167090
 H       -2.7270510        1.6036290       -2.7754200
 C       -3.0169650        0.6625130        1.8826300
 C       -3.4077190       -0.4621820        2.8423100
 O       -2.4159590        1.6803720        2.3111020
 H       -2.7939650       -0.3721980        3.7448190
 H       -4.4658170       -0.3669630        3.1377900
 H       -3.2598680       -1.4558270        2.4007090
 C       -2.1988920        4.2089860        0.4507570
 C       -3.5889140        4.4569160        0.3586520
 N       -1.4456350        4.6818470        1.4844240
 C       -4.2261190        5.1836390        1.3845580
 H       -4.1612350        4.0876150       -0.4924050
 C       -3.4556730        5.6496390        2.4700760
 H       -5.2973580        5.3846330        1.3353420
 C       -2.0701810        5.3791380        2.4690510
 H       -3.9071140        6.2135010        3.2867520
 H       -1.4311980        5.7325610        3.2808150
 H       -6.0968570       -0.7162490       -1.3716450
 H        0.9914150        1.5482900        2.1930590
 C        3.2563950        3.5281330       -1.4877250
 C        4.4361800        4.4273860       -1.8786770
 O        2.4742180        3.1246720       -2.3977360
 H        4.2804960        4.7639010       -2.9100630
 H        4.5324560        5.3014930       -1.2186730
 H        5.3871800        3.8723660       -1.8432590
 H        5.0744450        2.8572360        2.7726660
