66
Mol_000144_2D_DFT last geometry from G09 out file
Ru       -0.0162590       -0.0129030        0.3490720
C       -1.2380330       -0.7851400       -0.7510630
Cl       -1.1242600       -0.0543220        2.4822520
Cl        1.9963030       -0.4395990       -0.8850820
H       -1.8355950       -0.3258970       -1.5433450
H       -1.3524720       -1.8814510       -0.6221610
C       -0.1139480        1.8601010       -0.1541620
N        0.8941620        2.7442510        0.2061220
N       -0.9785130        2.5540040       -1.0017560
C        0.6492470        4.1223080       -0.3001010
C        1.8060490        2.5732830        1.3139590
C       -0.4055350        3.9246580       -1.4254390
H        1.5839740        4.5474200       -0.6694550
H        0.2551790        4.7446380        0.5176570
C        0.2506760        3.8179950       -2.8381130
C       -1.4749020        5.0496230       -1.4238820
C        0.8198230        5.1709690       -3.3385550
H        1.0317260        3.0463160       -2.8212910
H       -0.5147280        3.4924300       -3.5568500
C       -0.2455230        6.2905420       -3.3015080
H        1.6878980        5.4727280       -2.7301750
H        1.1950170        5.0386730       -4.3667190
C       -0.8870120        6.4030510       -1.8998810
H       -1.0313620        6.0759890       -4.0467280
H        0.2077540        7.2528860       -3.5889710
H       -1.6943800        7.1529670       -1.9101810
H       -0.1374880        6.7676470       -1.1773320
H       -1.9038310        5.1526770       -0.4192930
H       -2.2933450        4.7753330       -2.1069040
C        1.2164790        2.5709230        2.6050250
C        3.2284040        2.4793270        1.1927230
C        1.9885290        2.4740330        3.7714670
C        3.3858000        2.3827480        3.6365900
H        1.5272120        2.4713160        4.7559100
C        4.0004330        2.3742950        2.3757860
H        5.0790960        2.2681880        2.2975690
C       -2.3319160        2.1915040       -1.3055180
C       -2.6561960        1.8581410       -2.6469670
C       -3.3759310        2.1891100       -0.3221200
C       -3.9603890        1.5225360       -3.0367410
C       -4.9658460        1.5011430       -2.0506970
H       -4.1960560        1.2606390       -4.0656460
C       -4.6848440        1.8189970       -0.7124950
H       -5.4819000        1.7971990        0.0234890
C       -3.1672720        2.6445550        1.1017390
O       -4.1794950        2.1732840        1.9204480
O       -2.2470730        3.3896740        1.5078920
C       -4.0983170        2.5063220        3.3628780
H       -4.0606760        3.5949440        3.5037500
H       -5.0120070        2.0827560        3.7917880
H       -3.2066080        2.0360030        3.7946790
N       -6.3584410        1.1355260       -2.4353090
O       -7.2570260        1.1214610       -1.5161870
O       -6.5835300        0.8568590       -3.6715710
H        0.1360880        2.6479760        2.6802140
C        4.0522140        2.4042320       -0.0686440
O        3.4883840        3.0462040       -1.1644630
O        5.1752560        1.8581210       -0.1113170
C        4.2629660        2.9283710       -2.4284290
H        4.3160040        1.8747810       -2.7308980
H        3.7020820        3.5217930       -3.1562260
H        5.2772770        3.3251100       -2.2919930
N        4.2349010        2.2937730        4.8606820
O        5.5099940        2.2393360        4.7108560
O        3.6401520        2.2825750        6.0011770
H       -1.8565700        1.8200680       -3.3814520
