85
Mol_000104_2D_DFT last geometry from G09 out file
 Ru        0.3197830       -1.1129620        0.2180490
 C       -1.4360870       -1.5319740        0.0214100
 Cl        0.4867160       -1.6912990        2.5555940
 Cl        1.2156950       -1.4007670       -2.0042170
 H       -2.2948970       -0.8706560        0.1587250
 H       -1.6627110       -2.6023160       -0.1643170
 C        0.3162270        0.8298100        0.1593890
 N        1.4059520        1.5672340        0.6325900
 N       -0.5493720        1.7253890       -0.4645870
 C        2.2176970        1.1742640        1.7666970
 C        1.4814810        2.9557670       -0.0577170
 C        3.4585800        0.4876360        1.6890190
 C        1.7561680        1.5082340        3.0669760
 C        4.2036130        0.1685890        2.8410010
 C        3.7255740        0.5342790        4.1132690
 H        5.1434570       -0.3711850        2.7365250
 C        2.4909980        1.2038460        4.2251390
 H        2.0904740        1.4663000        5.2046930
 C       -0.0978900        3.2101580       -0.2540040
 C       -1.5817970        1.3430790       -1.4022200
 C       -2.9694650        1.2746420       -1.0993540
 C       -1.2078530        1.0282120       -2.7352030
 C       -3.9313570        0.9460950       -2.0738790
 C       -3.5252840        0.6573590       -3.3920970
 H       -4.9832690        0.9032360       -1.7959680
 C       -2.1548710        0.6871380       -3.7176270
 H       -1.8184880        0.4357790       -4.7236840
 H       -4.2734590        0.3977610       -4.1419720
 C        2.2884160        2.7070110       -1.3925490
 C        2.7240390        3.8824540       -2.3166120
 H        3.2018950        2.1942740       -1.0742280
 H        1.7482380        1.9646100       -1.9935580
 C        3.8930670        3.4599210       -3.2449680
 H        1.8943600        4.2211070       -2.9510850
 H        3.0396950        4.7593080       -1.7322450
 C        4.3111430        4.5636640       -4.2413420
 H        3.6037030        2.5535570       -3.8047020
 H        4.7642050        3.1734630       -2.6308950
 H        5.1449750        4.2274330       -4.8773130
 H        4.6385650        5.4757130       -3.7161700
 H        3.4767950        4.8419750       -4.9053380
 C        2.1592410        4.0457610        0.8265840
 C        3.7026730        4.0631150        0.9972260
 H        1.8679430        5.0158670        0.3979410
 H        1.7199320        4.0126630        1.8288430
 C        4.1592970        5.2748750        1.8497600
 H        4.0520980        3.1453540        1.4838210
 H        4.2091180        4.1123650        0.0243410
 C        5.6900930        5.3340870        2.0482080
 H        3.6679080        5.2345100        2.8379630
 H        3.8185690        6.2113900        1.3724410
 H        5.9787480        6.2052550        2.6571060
 H        6.2161300        5.4115600        1.0831610
 H        6.0608680        4.4311270        2.5587160
 C       -0.3954810        4.1130550       -1.4918550
 C       -1.8298430        4.6450890       -1.7586270
 H        0.2599320        4.9903760       -1.3907850
 H       -0.0634380        3.5915170       -2.3956080
 C       -1.8545140        5.6000360       -2.9801010
 H       -2.5258790        3.8205900       -1.9505540
 H       -2.2210550        5.1871550       -0.8873720
 C       -3.2629300        6.1542530       -3.2888390
 H       -1.4717910        5.0685620       -3.8691880
 H       -1.1633430        6.4435830       -2.8028460
 H       -3.2427520        6.8273990       -4.1602500
 H       -3.6649660        6.7240280       -2.4356950
 H       -3.9718230        5.3407460       -3.5108770
 C       -0.8608560        3.7144730        1.0283720
 C       -0.7788880        5.1984020        1.4962950
 H       -1.9159100        3.5054150        0.8314150
 H       -0.5958650        3.0612270        1.8698970
 C       -1.9660310        5.5602580        2.4270740
 H        0.1518660        5.3952500        2.0434810
 H       -0.7816600        5.8887030        0.6401160
 C       -1.8900850        7.0004880        2.9802340
 H       -1.9982930        4.8481060        3.2703260
 H       -2.9157040        5.4292940        1.8801420
 H       -2.7502860        7.2206090        3.6316550
 H       -1.8893490        7.7431550        2.1659880
 H       -0.9744010        7.1547730        3.5734820
 Cl        4.1674160       -0.0575280        0.1083750
 H        0.7855510        1.9890810        3.1608770
 H        4.3057670        0.2795510        5.0009290
 Cl       -3.6177240        1.5378130        0.5865420
 H       -0.1504970        1.0165730       -2.9812420
