95
Mol_000103_2D_DFT last geometry from G09 out file
 Ru        0.4184930       -0.5597580       -0.5217230
 C       -1.1897910       -1.3252920       -0.8766050
 Cl        0.7696880       -1.3635430        1.7240740
 Cl        1.3146000       -0.6355420       -2.7630270
 H       -2.1756080       -0.8707110       -0.9747150
 H       -1.1395200       -2.4247130       -1.0264270
 C        0.1340420        1.3678590       -0.2763820
 N        1.1839150        2.1695660        0.2071030
 N       -0.9038420        2.2110060       -0.6629200
 C        2.2409140        1.7180620        1.1150120
 C        1.0325150        3.6457060       -0.2858750
 C        3.5168480        1.2042780        0.6951440
 C        2.0595580        1.8815940        2.5307190
 C        4.4990820        0.9233850        1.6851200
 C        4.2976710        1.1341540        3.0536760
 H        5.4580610        0.5269720        1.3584450
 C        3.0578390        1.6231640        3.4856260
 H        2.8445980        1.7866480        4.5396030
 C       -0.5862920        3.7332530       -0.4182070
 C       -2.1735340        1.7134450       -1.1799820
 C       -3.2326240        1.2840140       -0.2999060
 C       -2.4377370        1.6419870       -2.5919510
 C       -4.4449140        0.8074600       -0.8694420
 C       -4.6636000        0.7355850       -2.2516150
 H       -5.2351950        0.4773660       -0.1978030
 C       -3.6529590        1.1648460       -3.1213560
 H       -3.7851830        1.1454170       -4.1999050
 H       -5.6044900        0.3537640       -2.6480630
 C        1.8239550        3.7095660       -1.6508380
 C        2.0634680        5.0523000       -2.4053690
 H        1.3819120        2.9920890       -2.3477190
 H        2.8150740        3.3185410       -1.4087200
 C        3.1526070        4.8909280       -3.4943220
 H        2.3679820        5.8538590       -1.7164720
 H        1.1505030        5.4010090       -2.9005970
 H        2.8809970        4.1010680       -4.2116630
 H        3.2791790        5.8275110       -4.0599930
 H        4.1299610        4.6284820       -3.0606480
 C        1.5874810        4.7069640        0.7156830
 C        3.1172570        4.9078620        0.9012360
 H        1.1545390        4.5442840        1.7059880
 H        1.1886150        5.6702590        0.3689310
 C        3.4038030        6.0787520        1.8718730
 H        3.6063040        5.1213860       -0.0581410
 H        3.5916250        4.0048020        1.2997070
 H        2.9707180        5.8908310        2.8667170
 H        4.4881100        6.2201930        2.0013110
 H        2.9871850        7.0277070        1.4968380
 C       -1.0166810        4.6553320       -1.6082560
 C       -2.5118500        5.0259220       -1.8275540
 H       -0.6206620        4.2556870       -2.5425680
 H       -0.4879680        5.6045520       -1.4438280
 C       -2.6740260        5.9775760       -3.0376270
 H       -2.9267620        5.5213940       -0.9402220
 H       -3.1294580        4.1373350       -1.9992500
 H       -2.3293540        5.5064270       -3.9701560
 H       -3.7313140        6.2526220       -3.1753390
 H       -2.1035730        6.9100950       -2.8970370
 C       -1.3699550        4.1812380        0.8730920
 C       -1.3977040        5.6717850        1.3355050
 H       -1.0608070        3.5713450        1.7236870
 H       -2.4098500        3.9058980        0.6716010
 C       -2.5635240        5.9346820        2.3193430
 H       -1.4937180        6.3599470        0.4842270
 H       -0.4666390        5.9407480        1.8466220
 H       -2.4985580        5.2761630        3.1993020
 H       -2.5384490        6.9750300        2.6798890
 H       -3.5441500        5.7697720        1.8460410
 C        3.9363260        0.8944440       -0.7532820
 C        4.3276940       -0.6059140       -0.9146200
 C        5.1270520        1.7811400       -1.2258790
 H        3.0898760        1.0788750       -1.4206740
 H        5.2698570       -0.8398900       -0.3971900
 H        4.4604910       -0.8338300       -1.9805900
 H        3.5524260       -1.2774360       -0.5272090
 H        5.3154790        1.5999420       -2.2945390
 H        6.0514530        1.5390240       -0.6809230
 H        4.9357800        2.8533680       -1.0918920
 N        0.7823500        2.3123830        3.1497990
 O        0.8409800        3.2450330        4.0439610
 O       -0.3017430        1.7181610        2.8224370
 H        5.0836430        0.9096080        3.7746060
 C       -3.1653630        1.2745060        1.2396880
 C       -3.2241520       -0.1618210        1.8382980
 C       -4.3022970        2.1350420        1.8696020
 H       -2.2113740        1.6954350        1.5500240
 H       -4.1421930       -0.6954850        1.5484440
 H       -3.2113130       -0.0915380        2.9358920
 H       -2.3569080       -0.7613120        1.5448520
 H       -4.3775470        3.1334430        1.4188240
 H       -4.1074980        2.2625480        2.9446570
 H       -5.2845620        1.6498770        1.7699730
 N       -1.4820600        2.0894230       -3.6508730
 O       -0.2255000        1.9597660       -3.4707570
 O       -1.9975080        2.5834950       -4.7303220
