67
M00000140_2D_DFT last geometry from G09 out file
Ru        0.0453020        0.1782580       -0.4167460
C        1.7388970       -0.0967260        0.1794090
Cl        0.4767180        0.2432530       -2.7917040
Cl       -1.1698640       -0.7547230        1.4464190
H        2.4362430        0.6120980        0.6318560
H        2.1006320       -1.1411330        0.0644510
C       -0.2641330        2.0789140       -0.1094550
N        0.5657890        3.0809990        0.3797030
N       -1.4891700        2.6816400       -0.4059400
C       -0.1384880        4.3921900        0.5215560
C        1.9539890        3.0337370        0.7931430
C       -1.4588790        4.1623260       -0.2358980
H        0.4650160        5.1994570        0.0865600
H       -0.2994550        4.6196240        1.5857120
H       -1.4684020        4.6569420       -1.2186800
C        2.2808060        2.8023980        2.1628460
C        2.9609990        3.3163110       -0.1809830
C        3.6499340        2.8353850        2.5314680
C        4.6556350        3.1040160        1.5868400
H        3.9237960        2.6373520        3.5689160
C        4.3104320        3.3448310        0.2416210
H        5.0927880        3.5500870       -0.4903930
C       -2.7253410        2.0467720       -0.8419890
C       -3.0172550        1.9258260       -2.2344520
C       -3.6784900        1.6604330        0.1534670
C       -4.2213760        1.2745900       -2.6041610
C       -5.1302700        0.8120720       -1.6386000
H       -4.4406930        1.1357260       -3.6639630
C       -4.8695110        1.0293640       -0.2714680
H       -5.5926950        0.7031800        0.4771670
C       -2.1435190        2.5093950       -3.3395390
C       -2.7724930        3.7595330       -4.0238770
H       -1.1506400        2.7668590       -2.9577210
H       -1.9755220        1.7398540       -4.1074890
C       -1.8755650        4.3380750       -5.1448830
H       -3.7554650        3.4949810       -4.4474560
H       -2.9665210        4.5423840       -3.2699220
C       -2.4838100        5.5768830       -5.8392780
H       -1.6864020        3.5533680       -5.8979170
H       -0.8884080        4.6016420       -4.7252530
H       -1.8175240        5.9560530       -6.6302500
H       -2.6524840        6.3967860       -5.1222930
H       -3.4529930        5.3374080       -6.3054820
C       -3.4798160        1.9498880        1.6320160
H       -2.4952260        1.6303890        1.9860860
H       -4.2326860        1.4219320        2.2312460
H       -3.5907910        3.0269710        1.8435880
H       -2.3350540        4.5044950        0.3290410
H       -6.0442990        0.3008870       -1.9458820
C        1.2380850        2.4886170        3.2326230
C        1.0679200        3.6020260        4.3072360
H        0.2660770        2.2776600        2.7731880
H        1.5345920        1.5597090        3.7482290
C        0.0098150        3.2414660        5.3778070
H        2.0348220        3.7892440        4.8031280
H        0.7865880        4.5512560        3.8196850
C       -0.1664850        4.3332570        6.4562640
H        0.2941280        2.2914970        5.8631610
H       -0.9605850        3.0534600        4.8851970
H       -0.9249090        4.0381700        7.1982940
H       -0.4880530        5.2888880        6.0114450
H        0.7758320        4.5171920        6.9968770
C        2.6223620        3.5563110       -1.6426800
H        1.9092900        4.3847720       -1.7723250
H        2.1687150        2.6674540       -2.1011620
H        3.5266530        3.8066160       -2.2127730
H        5.7032180        3.1216190        1.8924660
