59
M00000139_2D_DFT last geometry from G09 out file
Ru       -0.4784320        0.3601320        1.4668510
C       -2.2112070       -0.1403740        1.2473580
Cl       -0.6440110        0.9988290        3.7900940
Cl        0.6900460       -0.8006990       -0.2753460
H       -3.0578170        0.4729550        0.9238730
H       -2.4467720       -1.1813360        1.5507380
C       -0.4630570        2.0954350        0.6269200
N        0.6116420        2.9884550        0.7471500
N       -1.4339170        2.7492780       -0.1495590
C        0.4144270        4.1837420       -0.1416570
C        1.8689430        2.7424340        1.4024960
C        0.9575950        5.5568070        0.2741380
C       -1.1159690        4.2247650       -0.2215190
H        0.8270810        3.9334760       -1.1328300
C        0.5289340        6.5570740       -0.8413400
H        2.0531980        5.5494830        0.3655310
H        0.5433650        5.8582640        1.2492050
C       -0.9908040        6.5127820       -1.1674310
H        1.1044570        6.3336800       -1.7557530
H        0.8065020        7.5791960       -0.5391750
C       -1.5413660        5.0767020       -1.4254010
H       -1.5554260        6.9605450       -0.3320230
H       -1.1916030        7.1388870       -2.0510940
H       -2.6325050        5.1188750       -1.5344980
H       -1.1267720        4.6645160       -2.3587780
H       -1.5205990        4.6844720        0.6952560
C        1.9664000        2.8861470        2.8078670
C        3.0625690        2.4442890        0.6884990
C        3.1846110        2.7027470        3.4830530
C        4.3569030        2.3914850        2.7553210
H        3.2266280        2.8027740        4.5644970
C        4.2873890        2.2663240        1.3471310
H        5.1887450        2.0253790        0.7877540
C       -2.4910630        2.1568080       -0.8988970
C       -2.1898700        1.1999000       -1.9049440
C       -3.8533500        2.5291980       -0.7376510
C       -3.1956700        0.6446250       -2.7103170
C       -4.5436890        1.0504600       -2.5488500
H       -2.9396380       -0.0902970       -3.4694430
C       -4.8660070        2.0001610       -1.5490220
H       -5.9038130        2.2952180       -1.4087730
H        1.0643700        3.1232190        3.3639590
Cl        3.0659320        2.2751800       -1.1187240
C        5.6912250        2.1873570        3.4053360
O        5.6179880        2.3176350        4.7916460
O        6.7547130        1.9315390        2.7960390
C        6.8791690        2.1212730        5.5414820
H        6.6010970        2.2617130        6.5913250
H        7.2712900        1.1096880        5.3696810
H        7.6293180        2.8606010        5.2291040
H       -1.1542280        0.8920450       -2.0314260
Cl       -4.3494560        3.6630150        0.5969000
C       -5.6636560        0.5146310       -3.3840960
O       -5.2141520       -0.4197380       -4.3171290
O       -6.8654090        0.8509830       -3.2751260
C       -6.2410820       -1.0227000       -5.1965460
H       -5.6842710       -1.7141690       -5.8376790
H       -6.9905650       -1.5575320       -4.5974740
H       -6.7385650       -0.2454300       -5.7925010
