97
M00000137_2D_DFT last geometry from G09 out file
Ru        0.5902240       -0.2558950       -0.9260060
C       -0.8572340       -1.1380970       -1.5701510
Cl        0.6851280       -1.2851970        1.2554540
Cl        1.6052750        0.2524240       -3.0916240
H       -1.8724630       -0.7885710       -1.7616430
H       -0.6427970       -2.1988740       -1.8269860
C        0.0644150        1.5895730       -0.4880080
N        0.9240780        2.4105880        0.2550370
N       -0.9755460        2.3653850       -0.9691620
C        0.5825900        3.8945490        0.1013170
C        1.8565880        1.9489300        1.2953150
C       -0.7895810        3.8715630       -0.6946950
H        0.4210600        4.3011560        1.1094930
H       -0.6212060        4.3154670       -1.6792970
C        1.5043090        2.0875920        2.6819130
C        3.1546860        1.4375570        0.9940660
C        2.4459620        1.8101720        3.6995450
C        3.7366380        1.3253610        3.4102790
H        2.1388040        1.9391450        4.7348820
C        4.0428520        1.1240810        2.0548920
H        5.0197440        0.7149550        1.7879480
C       -2.0941570        1.8332070       -1.7355560
C       -2.2014320        1.9981780       -3.1579980
C       -3.1331190        1.1142170       -1.0599970
C       -3.3480080        1.5337020       -3.8453460
C       -4.4204660        0.9083530       -3.1784490
H       -3.3877910        1.6613100       -4.9251600
C       -4.2708490        0.6947990       -1.7949030
H       -5.0567920        0.1654080       -1.2514870
C       -1.1582840        2.6550520       -4.0182680
O       -1.0273130        1.9802440       -5.2286850
O       -0.5064230        3.6916330       -3.7596600
C        0.0106820        2.4800110       -6.1591890
H       -0.0733880        1.8296210       -7.0362800
H       -0.1769850        3.5300760       -6.4233500
H        0.9991770        2.3815110       -5.6935820
C       -3.0949170        0.6979100        0.4022610
H       -3.9725060        1.0902450        0.9389910
H       -2.1976800        1.0044900        0.9331960
H       -3.1470140       -0.3994290        0.4735990
C        1.7774800        4.7603510       -0.5506930
C        2.9544500        4.8766000        0.4696110
C        2.2840420        4.1776870       -1.8983850
C        1.3540040        6.2312610       -0.8509930
H        3.6871070        5.6081420        0.0969100
H        3.4851120        3.9362120        0.6262150
H        2.6036120        5.2340200        1.4506050
H        1.5403160        4.2952380       -2.6929040
H        2.5326320        3.1198310       -1.8362030
H        3.1914700        4.7191300       -2.2078080
H        0.5368700        6.2960440       -1.5769970
H        2.2178330        6.7464090       -1.2969980
H        1.0761480        6.7877320        0.0527950
C       -5.6765110        0.4823140       -3.9248180
C       -6.7569770        1.6018240       -3.9991470
H       -6.1199810       -0.4007300       -3.4367530
H       -5.4150820        0.1787550       -4.9515620
C       -8.0259440        1.1614220       -4.7607230
H       -6.3233440        2.4908270       -4.4867420
H       -7.0283690        1.9104400       -2.9756590
H       -8.5031280        0.2938460       -4.2774210
H       -8.7670210        1.9752760       -4.7939700
H       -7.7920470        0.8790790       -5.7996920
C       -2.0496310        4.6702210       -0.0867340
C       -2.5810550        4.1410340        1.2678880
C       -1.6834200        6.1681060        0.1575340
C       -3.2198370        4.7030000       -1.1236500
H       -1.8581460        4.3108290        2.0736030
H       -2.8125540        3.0791190        1.2506880
H       -3.5001340        4.6877160        1.5312460
H       -2.5659340        6.6703960        0.5810250
H       -1.4213600        6.6952540       -0.7670680
H       -0.8673700        6.2916810        0.8783170
H       -2.8644750        4.9837840       -2.1252310
H       -3.9558950        5.4588660       -0.8100540
H       -3.7494920        3.7504030       -1.2013970
C        0.1127360        2.3358680        3.1753810
O        0.1207600        3.1149500        4.3497180
O       -0.9407590        1.8675550        2.7027650
C       -1.1576470        3.2138680        5.0886530
H       -0.9197710        3.8191930        5.9703750
H       -1.9271360        3.7021900        4.4773310
H       -1.5091890        2.2146240        5.3820400
C        3.7138560        1.1957370       -0.3961150
H        2.9805910        1.2563020       -1.1967600
H        4.1679350        0.1954700       -0.4470370
H        4.5101500        1.9214720       -0.6260210
C        4.7438820        1.0406160        4.5147420
C        5.5946420        2.2844280        4.9079120
H        5.4245590        0.2338820        4.1986310
H        4.2188180        0.6767160        5.4129080
C        6.6100680        1.9861080        6.0323380
H        4.9208080        3.0980270        5.2245270
H        6.1285630        2.6532640        4.0160600
H        7.3202560        1.1988410        5.7326300
H        7.1939470        2.8851790        6.2845270
H        6.1033030        1.6474910        6.9502520
