59
M00000136_2D_DFT last geometry from G09 out file
Ru       -0.5353550        0.0445900       -0.6815740
C        1.2219940       -0.4080280       -0.6198730
Cl       -0.7614470        0.2777590       -3.0784870
Cl       -1.3605720       -0.7695710        1.4319120
H        2.0960430        0.2334080       -0.4747580
H        1.4303370       -1.4847330       -0.7979560
C       -0.5092140        1.9491520       -0.2934230
N        0.5227600        2.7955430        0.0854240
N       -1.6297640        2.7415960       -0.5069390
C        0.0416830        4.2040400        0.2463090
C        1.7432960        2.4314470        0.7537750
C       -1.2898380        4.2210340       -0.5452170
H        0.7798890        4.8960710       -0.1641270
H       -0.1207660        4.4062380        1.3156750
C       -2.3417860        5.1978560        0.0405790
C       -1.1125930        4.7555030       -2.0043030
C       -1.9222220        6.5854660       -0.5169230
H       -2.3842300        5.1648150        1.1343280
H       -3.3373890        4.9303720       -0.3426920
C       -1.1783120        6.3022880       -1.8682900
H       -2.7961540        7.2389190       -0.6539750
H       -1.2517540        7.0973580        0.1903010
H       -0.1692400        6.7392940       -1.8545710
H       -1.7048520        6.7487180       -2.7244530
H       -1.9499470        4.3963610       -2.6176430
H       -0.1827030        4.4000570       -2.4623350
C        3.0345680        2.6844100        0.1948340
C        1.6419730        1.8342530        2.0335030
C        4.1852130        2.3307270        0.9485970
C        4.0727230        1.7500870        2.2246900
H        5.1674340        2.5104270        0.5164010
C        2.7947790        1.4946600        2.7661300
H        2.6927860        1.0346150        3.7500030
C       -2.9830120        2.2504180       -0.6345840
C       -3.5190180        2.0684890       -1.9298660
C       -3.8023320        1.9746720        0.5097450
C       -4.8446240        1.6307360       -2.1174010
C       -5.6548450        1.3587840       -0.9976460
H       -5.2279510        1.4885980       -3.1287080
C       -5.1307740        1.5217520        0.2974410
H       -5.7460470        1.2952790        1.1640810
C        3.2183920        3.2910920       -1.1642760
O        4.3710900        2.7901320       -1.7794130
O        2.4780210        4.1340980       -1.7179120
C        4.6700870        3.3051170       -3.1358970
H        5.5906990        2.7894440       -3.4288920
H        3.8481190        3.0627450       -3.8227920
H        4.8170730        4.3937570       -3.1113090
H        0.6517700        1.6303350        2.4353370
H        4.9720800        1.4943030        2.7862520
H       -2.8719920        2.2291450       -2.7866600
C       -3.3153810        2.1497960        1.9224200
O       -4.1661350        1.5115360        2.8279370
O       -2.3053830        2.7853180        2.3001930
C       -3.7480360        1.5244110        4.2452400
H       -4.5442560        0.9875390        4.7720800
H       -2.7870280        1.0042840        4.3541810
H       -3.6552160        2.5551490        4.6146610
H       -6.6805430        1.0111390       -1.1277360
