67
M00000138_2D_DFT last geometry from G09 out file
Ru        0.2716950        0.1039790        0.2011270
C       -0.8441340       -0.7146940       -0.9760120
Cl       -0.9547910        0.1692420        2.2708020
Cl        2.2301700       -0.2871170       -1.2207750
H       -1.3220260       -0.3172980       -1.8759160
H       -0.9540860       -1.8076980       -0.8074120
C        0.0369350        2.0018940       -0.1183800
N        0.9403130        2.9369800        0.3977870
N       -0.9316470        2.7182870       -0.8045300
C        0.7526120        4.2984950       -0.2163090
C        1.7862100        2.7202690        1.5517640
C       -0.7182790        4.2227270       -0.7468650
H        0.8339850        5.0476170        0.5753160
H       -0.7564460        4.6000290       -1.7754960
C        1.6599010        3.5685220        2.6817460
C        2.7387700        1.6766510        1.5912790
C        2.4558510        3.3715370        3.8199030
C        3.3894780        2.3107290        3.8602040
H        2.3292590        4.0242980        4.6827510
C        3.5244180        1.4665150        2.7394200
H        4.2453100        0.6501570        2.7462620
C       -2.0452390        2.1554150       -1.5265130
C       -2.1369190        2.3257380       -2.9270690
C       -3.0758770        1.4678770       -0.8399280
C       -3.2461860        1.8272480       -3.6345290
C       -4.2764620        1.1508340       -2.9445610
H       -3.3045390        1.9639600       -4.7133290
C       -4.1818190        0.9645440       -1.5460270
H       -4.9701360        0.4418080       -1.0061000
H       -1.3384020        2.8278160       -3.4699880
H       -3.0024330        1.3152190        0.2337240
C        1.8660440        4.6662360       -1.2970830
C        1.8915490        3.6832320       -2.5000780
C        1.6023950        6.1118590       -1.8193160
C        3.2716550        4.6653210       -0.6242690
H        0.9659160        3.7232490       -3.0919560
H        2.0555730        2.6467590       -2.1836790
H        2.7145100        3.9554500       -3.1774790
H        2.3959660        6.3910400       -2.5273490
H        1.6128830        6.8505290       -1.0042810
H        0.6470190        6.2061210       -2.3538080
H        3.5929090        3.6574330       -0.3406880
H        3.3001150        5.3017050        0.2733800
H        4.0168500        5.0590480       -1.3308560
C       -5.4435030        0.5753730       -3.7039990
F       -5.7310480        1.2860390       -4.8924670
F       -6.6368470        0.5561100       -2.9457700
F       -5.2186620       -0.7737700       -4.1049600
C       -1.8251530        5.0397550        0.0687890
C       -2.0943090        4.4521770        1.4811570
C       -1.3632500        6.5244970        0.2167440
C       -3.1657150        5.0866180       -0.7307890
H       -1.2178030        4.5222210        2.1367050
H       -2.3949870        3.3991770        1.4451360
H       -2.9065880        5.0138280        1.9655610
H       -2.1608810        7.0980060        0.7103480
H       -1.1756720        6.9953640       -0.7583710
H       -0.4610100        6.6405560        0.8316020
H       -3.6740440        4.1193470       -0.7697580
H       -3.0109980        5.4348270       -1.7637410
H       -3.8542550        5.7946410       -0.2466300
H        0.9249840        4.3685050        2.6958490
H        2.9019340        1.0489540        0.7184890
C        4.2682130        2.1322860        5.0681050
F        4.7582820        0.8165830        5.2106630
F        3.6096650        2.4545070        6.2800550
F        5.4227750        2.9733350        5.0299010
