70
Mol_000064_2D_DFT last geometry from G09 out file
Ru       -0.1906960       -0.3116200       -0.1713410
C        1.5189780       -0.6996300        0.3028220
Cl        0.0459490       -0.3278380       -2.5745400
Cl       -1.3536990       -0.9387980        1.8568590
H        2.3187980       -0.0265600        0.6206190
H        1.7766230       -1.7793800        0.2404040
C       -0.3327510        1.6080990        0.0868920
N        0.5121670        2.5403980        0.6546340
N       -1.4944330        2.2804860       -0.2914170
C       -0.0721020        3.9126600        0.6780370
C        1.8876490        2.4010410        1.0774380
C       -1.5071190        3.7265240        0.1275450
H        0.5278850        4.5857260        0.0467260
H       -0.0835100        4.2946350        1.7042550
H       -1.6689210        4.3454540       -0.7645030
C        2.2350340        2.1784210        2.4395100
C        2.8973160        2.5685880        0.0985110
C        3.6175120        2.1091740        2.7536290
C        4.6411120        2.2709160        1.7924230
H        3.9000370        1.9107050        3.7897840
C        4.2569470        2.5031640        0.4472890
H        5.0177660        2.6181710       -0.3269010
C       -2.6369460        1.7099790       -0.9822940
C       -2.8574990        1.9572190       -2.3692790
C       -3.5622650        0.9375400       -0.2412130
C       -4.0123900        1.3862740       -2.9577340
C       -4.9412000        0.6000440       -2.2380780
H       -4.1751300        1.5393440       -4.0269050
C       -4.6944610        0.3817990       -0.8614450
H       -5.3786650       -0.2309640       -0.2717520
C       -1.8969100        2.7545280       -3.2485690
C       -2.4804040        4.0810690       -3.8052120
H       -1.6031640        2.1180720       -4.0974570
H       -0.9679070        2.9598390       -2.7038770
H       -2.7628120        4.7786860       -3.0010930
H       -3.3771200        3.9044390       -4.4171140
H       -1.7366110        4.5856950       -4.4418000
H       -3.3738000        0.7572120        0.8139990
C       -2.6200970        4.0508560        1.1339460
C       -3.8252530        4.6564970        0.7084510
N       -2.3953000        3.7208760        2.4401680
C       -4.8342810        4.9221230        1.6578240
H       -3.9758830        4.9064970       -0.3416180
C       -4.6111670        4.5729770        3.0056840
H       -5.7719270        5.3876690        1.3512130
C       -3.3766780        3.9766390        3.3460940
H       -5.3641330        4.7565720        3.7723420
H       -3.1589490        3.6916060        4.3772490
C       -6.1742880        0.0189390       -2.9203060
C       -7.4137900        0.9531740       -2.8507720
H       -6.4330750       -0.9458100       -2.4556620
H       -5.9492280       -0.1921870       -3.9779050
H       -7.2126120        1.9178130       -3.3411910
H       -7.6983310        1.1587980       -1.8077250
H       -8.2765910        0.4886920       -3.3537750
C        1.2001070        1.9832230        3.5436460
C        1.1916490        3.1152380        4.6058150
H        1.4083560        1.0278590        4.0534680
H        0.1975680        1.8879860        3.1145740
H        0.4336000        2.9001920        5.3747240
H        0.9452500        4.0885090        4.1556940
H        2.1644080        3.2141190        5.1105770
H        2.6036180        2.7191540       -0.9410790
C        6.1114830        2.2187420        2.1918590
C        6.7005760        3.6126700        2.5441890
H        6.7038180        1.7826510        1.3713920
H        6.2378890        1.5522430        3.0598540
H        6.6318210        4.3018420        1.6890620
H        7.7617660        3.5232070        2.8248750
H        6.1620170        4.0697250        3.3879780
