76
Mol_000066_2D_DFT last geometry from G09 out file
Ru        0.2161200       -0.0424410        0.1772620
C       -1.1631050       -0.8018220       -0.7284540
Cl       -0.5578060       -0.5105880        2.4212110
Cl        1.9095870       -0.2886500       -1.5338920
H       -2.0037030       -0.3164920       -1.2299180
H       -1.1341980       -1.9118930       -0.7717930
C       -0.1407610        1.8721020        0.0404740
N        0.7104500        2.8291060        0.6124900
N       -1.1626800        2.5632050       -0.5913310
C        0.3647450        4.2432390        0.1739890
C        1.9322250        2.4834160        1.3339430
C       -1.0731030        4.0270060       -0.3508490
H        1.0305960        4.5060130       -0.6662580
C        3.1717070        2.4229730        0.6305640
C        1.8680320        2.2847680        2.7461500
C        4.3463820        2.0412650        1.3395310
C        4.2699060        1.7034870        2.7219170
C        3.0479160        1.8783450        3.4350760
C       -2.3309780        2.0915850       -1.3098550
C       -3.5399330        1.8564570       -0.5925660
C       -2.2632780        1.9900790       -2.7300300
C       -4.7058240        1.4845010       -1.3230020
C       -4.6454220        1.3349230       -2.7401860
C       -3.4361320        1.6089420       -3.4453450
C        0.4659270        5.4047790        1.2172020
C       -0.2207520        6.6784060        0.6423640
C        1.9185910        5.7740430        1.6157060
H       -0.0841050        5.1018290        2.1220190
H       -0.1236200        7.5067550        1.3596240
H       -1.2934040        6.5402990        0.4497870
H        0.2572750        6.9988340       -0.2974920
H        1.9059130        6.6255750        2.3132510
H        2.5021470        6.0805700        0.7328790
H        2.4492150        4.9520000        2.1031420
H       -1.2689530        4.5764570       -1.2792160
H       -1.8299150        4.3256900        0.3922940
C        3.2701800        2.7853910       -0.8438530
H        2.2947780        2.7905960       -1.3321640
H        3.8836350        2.0628120       -1.3925190
H        3.7301480        3.7808350       -0.9722880
C        0.5870410        2.5406390        3.5263630
H       -0.2541310        2.7519720        2.8646220
H        0.7135740        3.4005920        4.2055890
H        0.3034460        1.6726520        4.1318940
C        5.6817410        1.9811450        0.6042900
H        6.5315340        2.1263570        1.2810160
H        5.7526560        2.7537350       -0.1709320
H        5.8207130        1.0082650        0.1014190
C        5.5003210        1.1559080        3.4402750
H        6.1127720        0.5384950        2.7717270
H        5.2243260        0.5259740        4.2930310
H        6.1483470        1.9627000        3.8257170
C        3.0041780        1.6220120        4.9387150
H        2.1644660        2.1315050        5.4210460
H        3.9207280        1.9631290        5.4382230
H        2.8924030        0.5456160        5.1558720
C       -3.5837570        1.9691190        0.9257840
H       -2.5900840        2.1074110        1.3550430
H       -3.9952840        1.0569330        1.3803580
H       -4.2188030        2.8098870        1.2502040
C       -0.9583400        2.2594250       -3.4676990
H       -1.0450060        3.1314750       -4.1362100
H       -0.6656190        1.4005350       -4.0889370
H       -0.1338200        2.4426020       -2.7763350
C       -6.0229490        1.2386600       -0.5932120
H       -6.8728480        1.6728870       -1.1375580
H       -6.0270380        1.6709620        0.4118300
H       -6.2287110        0.1600430       -0.4810520
C       -5.8865200        0.8821100       -3.5034870
H       -5.6304440        0.3670900       -4.4358950
H       -6.5317740        1.7372950       -3.7715360
H       -6.4986970        0.1915850       -2.9109070
C       -3.4046410        1.4906310       -4.9664690
H       -2.5145350        1.9539120       -5.4012800
H       -4.2796860        1.9714730       -5.4265300
H       -3.4089590        0.4356750       -5.2899460
