85
M00000012_2D_DFT last geometry from G09 out file
 Ru       -0.0400300       -0.1295160        0.4994430
 C       -1.1457150       -0.8390490       -0.7550760
 Cl       -1.5596640       -0.1698230        2.3837420
 Cl        2.0338210       -0.9036630       -0.4890740
 H       -1.6527790       -0.3351030       -1.5813650
 H       -1.3047520       -1.9354380       -0.6717540
 C       -0.0982300        1.7874670        0.1186400
 N        0.7850080        2.6978290        0.7339130
 N       -0.9571970        2.5132290       -0.6813420
 C        2.0157280        2.2506470        1.3961090
 C        0.3857550        4.1682200        0.4486390
 C        3.2027570        2.1360650        0.6111290
 C        2.0165270        1.9291380        2.7870250
 C        4.4011360        1.6856410        1.2281000
 C        4.4067210        1.3184080        2.6035810
 C        3.2260500        1.4621390        3.3855040
 C       -0.5724110        3.9448640       -0.7494780
 H       -1.4605710        4.5760880       -0.6626410
 H       -0.0719350        4.1245800       -1.7089890
 C       -2.0318810        2.0940080       -1.5681290
 C       -3.3687580        2.0482330       -1.0786460
 C       -1.7248900        1.8503780       -2.9405770
 C       -4.4183700        1.7149610       -1.9875830
 C       -4.1266570        1.4599390       -3.3595590
 C       -2.7879900        1.5570190       -3.8412440
 C       -5.8613060        1.6356980       -1.4962770
 H       -6.2331680        0.5973970       -1.5070250
 H       -6.5374280        2.2270580       -2.1317860
 H       -5.9734500        2.0022190       -0.4730320
 C       -5.2437850        1.0804960       -4.3275060
 H       -6.1292620        0.6994000       -3.8095790
 H       -4.9204860        0.3023130       -5.0315950
 H       -5.5678550        1.9464640       -4.9309470
 C       -2.4948380        1.3332050       -5.3218440
 H       -1.5737860        1.8339550       -5.6393010
 H       -3.3049510        1.7145080       -5.9563860
 H       -2.3778950        0.2606180       -5.5569640
 C        1.5485440        5.1407780        0.0921380
 C        1.4667220        6.0320150       -1.0096390
 N        2.6008260        5.1973330        0.9600120
 C        2.5070440        6.9570010       -1.2337370
 H        0.6096410        6.0386990       -1.6779220
 C        3.6132060        6.9782070       -0.3609920
 H        2.4480940        7.6493510       -2.0748240
 C        3.6059610        6.0795230        0.7261620
 H        4.4408090        7.6733890       -0.5028530
 H        4.4258030        6.0656940        1.4475890
 C       -0.3594860        4.8509180        1.6577810
 C        0.3056640        5.1771030        2.8664860
 N       -1.6645010        5.1888190        1.4560150
 C       -0.4007040        5.8520990        3.8789800
 H        1.3510990        4.9192290        2.9950250
 C       -1.7548380        6.1921110        3.6734470
 H        0.1009090        6.1099540        4.8129320
 C       -2.3412400        5.8366610        2.4431850
 H       -2.3352750        6.7153110        4.4336500
 H       -3.3846580        6.0754570        2.2274880
 C        3.2168590        2.4413780       -0.8778090
 H        2.2228940        2.6717370       -1.2610050
 H        3.5878690        1.5757060       -1.4415310
 H        3.8709840        3.2959010       -1.1089140
 C        0.7663070        2.0444670        3.6449940
 H        0.5198110        1.0851740        4.1166590
 H       -0.1073370        2.3382000        3.0657830
 H        0.9023550        2.7804560        4.4512710
 C        5.6743250        1.5514030        0.3996850
 H        5.7161040        2.2846630       -0.4141760
 H        5.7407960        0.5522450       -0.0653190
 H        6.5769920        1.6912250        1.0063480
 C        5.6781160        0.7430030        3.2220580
 H        6.1803080        0.0542500        2.5298090
 H        5.4754590        0.1821560        4.1396390
 H        6.4053000        1.5342580        3.4762500
 C        3.2564300        1.0985240        4.8686070
 H        2.3886650        1.4821180        5.4117660
 H        4.1521210        1.4991490        5.3645270
 H        3.2664930        0.0045130        5.0135290
 C       -3.6774970        2.3298860        0.3829930
 H       -4.3541610        3.1923690        0.4866060
 H       -2.7766810        2.5483880        0.9534580
 H       -4.1600520        1.4653210        0.8605850
 C       -0.2846850        1.8569290       -3.4379560
 H       -0.0641520        2.7507350       -4.0457870
 H       -0.0807600        0.9821900       -4.0708350
 H        0.4300480        1.8202130       -2.6140830
