82
M00000032_2D_DFT last geometry from G09 out file
 Ru        0.0631250       -0.0664730        0.2055870
 C       -1.3078290       -0.7866620       -0.7432880
 Cl       -0.7391070       -0.6115380        2.4192300
 Cl        1.7841530       -0.3121660       -1.4822020
 H       -2.1378120       -0.2858050       -1.2460450
 H       -1.2829480       -1.8956920       -0.8136480
 C       -0.2240770        1.8690190        0.1126360
 N        0.7065560        2.7558580        0.6653450
 N       -1.2233450        2.6299360       -0.4845270
 C        0.4843880        4.1467890        0.1364940
 C        1.9061180        2.3866630        1.4157370
 C       -1.0454030        4.1418090       -0.2259450
 H        1.0206500        4.2107960       -0.8225660
 C        3.1671650        2.3452810        0.7464620
 C        1.8068090        2.1649270        2.8227270
 C        4.3311560        1.9923100        1.4864720
 C        4.2235980        1.6370790        2.8621430
 C        2.9764140        1.7687330        3.5368120
 C       -2.3748370        2.1544850       -1.2383740
 C       -3.5985140        1.8602960       -0.5617900
 C       -2.2662390        2.0306150       -2.6586350
 C       -4.7529450        1.5433530       -1.3364700
 C       -4.6709660        1.4681070       -2.7572580
 C       -3.4281340        1.6972720       -3.4172240
 C        1.0085930        5.3084720        0.9780360
 C        1.8524420        6.2670850        0.3612270
 N        0.6413050        5.4185730        2.2898230
 C        2.3212300        7.3670070        1.1079650
 H        2.1418610        6.1524490       -0.6834620
 C        1.9456890        7.4789400        2.4621100
 H        2.9697300        8.1122020        0.6451730
 C        1.1091620        6.4781500        3.0025030
 H        2.2891500        8.3072070        3.0822470
 H        0.7965480        6.5208330        4.0481870
 C       -1.2992070        5.0041650       -1.4855780
 H       -0.6621930        4.7125020       -2.3264950
 H       -1.0874810        6.0556480       -1.2439020
 H       -2.3466150        4.9407690       -1.8053100
 C       -1.9897540        4.6316650        0.8993810
 H       -1.8171570        4.1112750        1.8441060
 H       -3.0322660        4.4923770        0.5916030
 H       -1.8340620        5.7032900        1.0764350
 C        3.2994830        2.6698840       -0.7347560
 H        2.3485310        2.5785080       -1.2608290
 H        3.9840630        1.9742220       -1.2318370
 H        3.6943760        3.6896140       -0.8856420
 C        0.5050700        2.3633590        3.5800230
 H       -0.3217170        2.5903280        2.9101430
 H        0.5972850        3.2077220        4.2796130
 H        0.2330030        1.4681640        4.1505540
 C        5.6918570        1.9825390        0.7945340
 H        5.7518220        2.7429440        0.0066990
 H        5.9002760        1.0082370        0.3187480
 H        6.5086490        2.1860390        1.4970410
 C        5.4435680        1.1089710        3.6130960
 H        6.1310630        0.5771190        2.9449740
 H        5.1552610        0.4022900        4.4000430
 H        6.0166140        1.9200160        4.0962600
 C        2.8880750        1.4848540        5.0334100
 H        2.7033070        0.4135710        5.2261800
 H        2.0701450        2.0367920        5.5074840
 H        3.8116870        1.7587430        5.5588030
 C       -3.6743870        1.7781610        0.9572900
 H       -2.6946940        1.8689780        1.4236420
 H       -4.0811680        0.8043790        1.2654030
 H       -4.3288750        2.5524190        1.3861360
 C       -0.9216040        2.1706500       -3.3627590
 H       -0.9119170        3.0098230       -4.0755230
 H       -0.6878190        1.2590080       -3.9315540
 H       -0.1034710        2.3128690       -2.6565840
 C       -6.0840640        1.2586500       -0.6475340
 H       -6.9241090        1.7127370       -1.1904410
 H       -6.1135180        1.6428270        0.3763630
 H       -6.2866480        0.1748200       -0.5916130
 C       -5.9210830        1.1081050       -3.5543420
 H       -6.4734440        0.2829330       -3.0839320
 H       -5.6929850        0.8018350       -4.5791480
 H       -6.6168870        1.9627380       -3.6160620
 C       -3.3486600        1.5807710       -4.9379700
 H       -2.3855460        1.9114690       -5.3342830
 H       -4.1255050        2.1871360       -5.4273160
 H       -3.4936820        0.5397760       -5.2718360
