83
M00000037_2D_DFT last geometry from G09 out file
 Ru       -0.2571710       -0.2867070        0.6567390
 C        1.5138940       -0.6798980        0.5703150
 Cl       -0.8954880       -1.4594710       -1.3552630
 Cl       -0.5551940        0.0307300        3.0351100
 H        2.3245160       -0.0647000        0.1670260
 H        1.8006990       -1.6895540        0.9315670
 C       -0.2730740        1.6094580        0.2028490
 N        0.7933890        2.5005090        0.1153730
 N       -1.4466200        2.3462010       -0.0319810
 C        0.3520470        3.8236270       -0.4201460
 C        2.1328280        2.3984370        0.6343190
 C       -1.1571580        3.8520380       -0.0846820
 H        0.5445350        3.8803560       -1.5004990
 H        0.9082650        4.6250780        0.0760570
 C       -1.4443410        4.5986940        1.2550020
 C       -1.9815290        4.6697450       -1.1095730
 C       -1.4946150        6.1052650        0.8651460
 H       -0.6898490        4.3779180        2.0226180
 H       -2.4164140        4.2679770        1.6307060
 C       -1.7481050        6.1441400       -0.6820100
 H       -2.2928780        6.6214230        1.4182760
 H       -0.5549450        6.6197580        1.1161450
 H       -0.8752440        6.5653900       -1.2041060
 H       -2.6092270        6.7751100       -0.9456050
 H       -3.0441930        4.4153090       -1.0112140
 H       -1.6891980        4.4724490       -2.1498520
 C        3.2734330        2.6280980       -0.2116390
 C        2.3206980        2.2083830        2.0215290
 C        4.5506430        2.6831750        0.4117100
 C        4.7416700        2.4996820        1.8028170
 H        5.4231840        2.8776580       -0.2066150
 C        3.5983750        2.2447340        2.6028610
 H        3.7012160        2.0615390        3.6715880
 C       -2.6655440        1.8137870       -0.6253390
 C       -2.5528750        1.2927830       -1.9356590
 C       -3.9792380        1.9369820       -0.0437510
 C       -3.6611200        0.8758370       -2.6863000
 C       -4.9620780        0.9814000       -2.1390070
 H       -3.5108830        0.5015790       -3.6976230
 C       -5.0842250        1.5041020       -0.8305090
 H       -6.0735200        1.5314010       -0.3816790
 N        3.1336390        2.8475410       -1.6152040
 C        4.2018960        3.5706750       -2.3263680
 C        2.5005070        1.7940190       -2.4422390
 H        5.0944550        2.9488680       -2.5464500
 H        4.5225690        4.4461580       -1.7470930
 H        3.8044000        3.9273100       -3.2883250
 H        1.6508150        1.3440790       -1.9263680
 H        3.2150610        0.9846910       -2.6952780
 H        2.1392300        2.2316240       -3.3851790
 H        1.4493150        2.0230060        2.6453200
 C        6.1103240        2.5585270        2.4030130
 C        6.3242680        3.1580420        3.6740790
 C        7.2372640        2.0149870        1.7280430
 C        7.6114970        3.2151220        4.2452980
 H        5.4838410        3.6033080        4.2075030
 C        8.7204990        2.6721250        3.5605110
 H        7.7489280        3.6880920        5.2195150
 C        8.5251320        2.0707430        2.2981270
 H        9.7171070        2.7143350        4.0032910
 H        9.3716320        1.6356150        1.7634410
 H        7.1022780        1.5161670        0.7675860
 H       -1.5620660        1.2277840       -2.3782940
 N       -4.2208990        2.5182910        1.2374310
 C       -5.5535800        3.0862020        1.5098060
 C       -3.6199610        1.8803780        2.4296690
 H       -5.4728800        3.7619150        2.3747320
 H       -6.3244860        2.3269390        1.7564310
 H       -5.9060160        3.6727220        0.6512450
 H       -3.6210000        2.5904200        3.2701750
 H       -2.5900660        1.5842100        2.2430680
 H       -4.1850460        0.9791590        2.7399720
 C       -6.1664860        0.5364270       -2.9047740
 C       -7.3878550        1.2611530       -2.8466330
 C       -6.1240050       -0.6300380       -3.7158470
 C       -8.5214870        0.8383370       -3.5697640
 H       -7.4442580        2.1761930       -2.2554680
 C       -8.4627460       -0.3226740       -4.3710940
 H       -9.4450430        1.4179900       -3.5144040
 C       -7.2568090       -1.0541500       -4.4394950
 H       -9.3400930       -0.6517670       -4.9307620
 H       -7.2005190       -1.9596050       -5.0466920
 H       -5.2107230       -1.2244440       -3.7554280
