79
M00000005_2D_DFT last geometry from G09 out file
 Ru       -0.0242400       -0.1327150        0.5411130
 C       -1.5104920       -0.8772110       -0.1912730
 Cl       -0.7390870        0.2338350        2.8302750
 Cl        1.5755000       -0.9596150       -1.0698350
 H       -2.2363510       -0.4244070       -0.8705630
 H       -1.6611430       -1.9515610        0.0530720
 C       -0.1219620        1.7401870        0.0225820
 N        0.9846600        2.5636530        0.1940700
 N       -1.1750420        2.5274110       -0.4343400
 C        0.6863680        4.0126010       -0.0561510
 C        2.2841180        2.1601440        0.7042960
 C        0.8289840        4.9107280        1.2155830
 C       -0.7421280        3.9566580       -0.6694870
 H        1.3980650        4.3859030       -0.8018290
 C       -0.4338810        5.0136800        2.0437940
 H        1.6750230        4.5528860        1.8159810
 H        1.1121230        5.9211120        0.8651810
 C       -1.6375020        5.0939690        1.4284080
 H       -0.3506280        5.0342280        3.1325950
 C       -1.7088230        5.0204480       -0.0833910
 H       -2.5616620        5.1833550        2.0011810
 H       -2.7269940        4.8236760       -0.4382500
 H       -1.4154800        5.9914520       -0.5253950
 H       -0.6927440        4.1085970       -1.7606620
 C        2.3961700        1.7822060        2.0635100
 C        3.4607810        2.1911220       -0.1076520
 C        3.6190180        1.4026040        2.6316410
 C        4.8123740        1.4183910        1.8487710
 H        3.6300930        1.0991550        3.6753560
 C        4.6875110        1.8306680        0.4873560
 H        5.5728310        1.8468040       -0.1411930
 C       -2.3340590        2.0597130       -1.1790990
 C       -2.1274120        1.7508490       -2.5475810
 C       -3.6503760        1.9537220       -0.6380510
 C       -3.1675020        1.3496400       -3.3933820
 C       -4.5002330        1.2422950       -2.8853950
 H       -2.9369290        1.1111140       -4.4284130
 C       -4.6923340        1.5466250       -1.5048950
 H       -5.6874510        1.4552080       -1.0800780
 H        1.5037970        1.7744760        2.6851920
 C        3.4480540        2.6060010       -1.5916100
 C        4.0851170        1.5447760       -2.5314150
 C        4.1308290        3.9906380       -1.8051030
 H        2.3969440        2.6934580       -1.9006250
 H        3.6099120        0.5670230       -2.3925810
 H        5.1656930        1.4344050       -2.3567880
 H        3.9521150        1.8496420       -3.5819670
 H        5.2070990        3.9378060       -1.5828720
 H        3.7019290        4.7707420       -1.1582850
 H        4.0212990        4.3156170       -2.8520270
 N        6.0506460        1.0497540        2.3919410
 C        6.1312220        0.5588920        3.7748130
 C        7.2560980        1.0287760        1.5534660
 H        5.5207540       -0.3488060        3.9282490
 H        5.7963350        1.3208000        4.4996590
 H        7.1711470        0.3080960        4.0142460
 H        8.1192400        0.7319440        2.1606420
 H        7.4755140        2.0239240        1.1293620
 H        7.1697330        0.3122000        0.7165970
 H       -1.1137200        1.8003190       -2.9481910
 C       -3.9806530        2.2164490        0.8426840
 C       -4.4373700        0.9228080        1.5771380
 C       -5.0528340        3.3295970        1.0260250
 H       -3.0574220        2.5486870        1.3329100
 H       -5.3670450        0.5176610        1.1484840
 H       -4.6230600        1.1431060        2.6394310
 H       -3.6641280        0.1476440        1.5346910
 H       -4.7794830        4.2602940        0.5090380
 H       -5.1758360        3.5573300        2.0963100
 H       -6.0355010        3.0157640        0.6429830
 N       -5.5646250        0.8470490       -3.7066950
 C       -5.3261850        0.5204000       -5.1194710
 C       -6.9183630        0.7049450       -3.1548050
 H       -6.2737110        0.2447420       -5.5966090
 H       -4.6313990       -0.3301250       -5.2375850
 H       -4.9105400        1.3797900       -5.6737550
 H       -6.9614310       -0.0549050       -2.3541960
 H       -7.6065900        0.3914930       -3.9482570
 H       -7.2961400        1.6567590       -2.7421710
