76
M00000030_2D_DFT last geometry from G09 out file
 Ru       -0.0555990       -0.0916730        0.5385650
 C       -1.3903280       -0.8458630       -0.4352240
 Cl       -1.0352840       -0.2294880        2.7397690
 Cl        1.7853110       -0.6106300       -0.9417600
 H       -2.1143990       -0.3645930       -1.0962790
 H       -1.4559430       -1.9519680       -0.3476760
 C       -0.2320440        1.8235980        0.1992050
 N        0.7044800        2.7278400        0.6832090
 N       -1.1906760        2.5570620       -0.4987160
 C        0.3890040        4.1397550        0.3415520
 C        1.8612930        2.4568880        1.5277410
 C       -0.8528120        4.0329500       -0.5725750
 H        0.1619650        4.7060970        1.2520790
 H        1.2406360        4.6084010       -0.1696020
 H       -0.5903170        4.2589710       -1.6167270
 C        3.1395390        2.3115290        0.9130810
 C        1.7088600        2.4733200        2.9459030
 C        4.2620440        2.0122620        1.7363080
 C        4.0965690        1.8693070        3.1446340
 C        2.8404980        2.1582370        3.7536940
 C       -2.2794030        2.0752090       -1.3306650
 C       -3.5690140        1.8800930       -0.7555880
 C       -2.0398820        1.8835670       -2.7244040
 C       -4.6449190        1.4826790       -1.6062710
 C       -4.4265070        1.3121540       -3.0053560
 C       -3.1323480        1.5275380       -3.5653890
 C       -6.0345610        1.2375350       -1.0232780
 H       -6.7994130        1.8439150       -1.5325500
 H       -6.0881110        1.4753730        0.0416720
 H       -6.3349560        0.1824380       -1.1314790
 C       -5.5684470        0.8894580       -3.9248800
 H       -6.4323380        0.5077530       -3.3736610
 H       -5.2521410        0.1008100       -4.6220480
 H       -5.9226230        1.7349500       -4.5396320
 C       -2.9186770        1.3498540       -5.0654850
 H       -2.0322080        1.8832850       -5.4240230
 H       -3.7759620        1.7191570       -5.6435850
 H       -2.7861060        0.2866340       -5.3319770
 C       -1.9955260        4.9772700       -0.1776110
 C       -2.7962810        5.5911490       -1.1693140
 N       -2.1873330        5.2146340        1.1538080
 C       -3.8270400        6.4704200       -0.7770630
 H       -2.6210320        5.3809010       -2.2242650
 C       -4.0305700        6.7132340        0.5973200
 H       -4.4547030        6.9543010       -1.5266570
 C       -3.1846130        6.0621410        1.5221710
 H       -4.8137010        7.3869480        0.9457720
 H       -3.3020640        6.2210080        2.5960300
 C        3.3257700        2.4970680       -0.5859650
 H        3.8417140        1.6403370       -1.0359160
 H        3.9273780        3.3982490       -0.7945800
 H        2.3717090        2.5954410       -1.1072270
 C        0.3884080        2.8600310        3.5968710
 H       -0.4028190        3.0333650        2.8665780
 H        0.5089920        3.7849330        4.1850470
 H        0.0273180        2.0762410        4.2733340
 C        5.6374330        1.8245570        1.1040610
 H        6.4454640        2.1339110        1.7784790
 H        5.7465650        2.4059150        0.1817680
 H        5.8152700        0.7675380        0.8392530
 C        5.2744600        1.4185930        4.0038930
 H        5.9155550        0.7097040        3.4655250
 H        4.9404170        0.9176340        4.9192280
 H        5.9115140        2.2671590        4.3101620
 C        2.7097980        2.1181160        5.2733530
 H        1.8269890        2.6583390        5.6275860
 H        3.5843590        2.5611360        5.7694650
 H        2.6174840        1.0805110        5.6381210
 C       -3.7895760        2.0487200        0.7406690
 H       -2.8833020        2.3703040        1.2530620
 H       -4.0991070        1.0998450        1.2033250
 H       -4.5743540        2.7906850        0.9509700
 C       -0.6370640        2.0084000       -3.3063720
 H       -0.3969740        1.1413740       -3.9370500
 H        0.1270890        2.0438890       -2.5278470
 H       -0.5288130        2.9059910       -3.9384660
