85
Mol_000082_2D_DFT last geometry from G09 out file
Ru       -0.0401890       -0.1865040        0.1665760
C       -1.3344480       -1.0135950       -0.8000500
Cl       -1.0333450       -0.1621000        2.3771280
Cl        1.7586510       -0.5353850       -1.4309070
H       -2.0516320       -0.5980170       -1.5110480
H       -1.3467580       -2.1193430       -0.6773920
C       -0.2927460        1.7200090       -0.1259170
N        0.6700240        2.6106420        0.3234900
N       -1.3130790        2.4601270       -0.6923380
C        1.7824940        2.2282610        1.1755980
C        0.4402500        4.0223080       -0.2409780
C        3.0373940        1.8575530        0.6457520
C        1.6226120        2.2432690        2.5820960
C        4.1047370        1.5210870        1.5033810
C        3.9672990        1.5360400        2.9135310
H        5.0461400        1.2276870        1.0450070
C        2.6932940        1.9029310        3.4262890
H        2.5172510        1.9122020        4.5015430
C       -1.1658590        3.9647190       -0.3558360
C       -2.4832650        1.9056940       -1.3303210
C       -3.5993060        1.4760490       -0.5796390
C       -2.5287720        1.7801530       -2.7382260
C       -4.7424630        0.9621450       -1.2270800
C       -4.8172780        0.8470800       -2.6383720
H       -5.5736930        0.6382180       -0.6050140
C       -3.6729700        1.2637590       -3.3734040
H       -3.6612280        1.1805050       -4.4599410
C       -6.0609710        0.2825290       -3.3791470
C       -6.6157830        1.3651420       -4.3609450
C       -5.6502870       -0.9908700       -4.1876960
C       -7.2064470       -0.1153220       -2.4062040
H       -5.8715340        1.6592400       -5.1139010
H       -6.9196690        2.2714790       -3.8158280
H       -7.4962390        0.9775020       -4.8958140
H       -5.2612060       -1.7726480       -3.5182980
H       -4.8752970       -0.7731040       -4.9354830
H       -6.5221340       -1.4007940       -4.7200560
H       -6.8967980       -0.9065230       -1.7076050
H       -8.0606320       -0.5012230       -2.9814560
H       -7.5653120        0.7436320       -1.8199550
C        1.2060640        4.0409570       -1.6234670
C        1.3345550        5.3462220       -2.4538400
H        2.2253760        3.7108610       -1.3852140
H        0.7850980        3.2499300       -2.2606650
H        1.5913560        6.2214140       -1.8436130
H        0.4289810        5.5921970       -3.0194710
H        2.1453080        5.2146430       -3.1882780
C        0.9353230        5.1486600        0.7176950
C        2.4496110        5.4601410        0.8261140
H        0.4285490        6.0735400        0.4055280
H        0.5738570        4.9257920        1.7276250
H        2.9050180        5.7337730       -0.1331560
H        3.0221950        4.6276750        1.2452250
H        2.5776580        6.3202410        1.5032570
C       -1.7241150        4.8938250       -1.4782570
C       -3.2523560        5.1169260       -1.6110850
H       -1.2615370        5.8800920       -1.3274050
H       -1.3559110        4.5288330       -2.4437610
H       -3.7971500        4.1994000       -1.8517160
H       -3.4273100        5.8274010       -2.4353870
H       -3.7036660        5.5506210       -0.7109300
C       -1.9391980        4.1593100        1.0076910
C       -2.1353100        5.5703760        1.6261460
H       -2.9419160        3.7521950        0.8249340
H       -1.4849870        3.4988520        1.7594640
H       -2.4063850        6.3333140        0.8854930
H       -1.2533940        5.9330980        2.1653120
H       -2.9589330        5.5207310        2.3563370
H        3.1736260        1.7908240       -0.4297340
H        0.6531450        2.4883350        3.0107820
C        5.1184450        1.1484830        3.8818360
C        5.4115650        2.3400490        4.8498550
C        4.6893440       -0.1045900        4.7126270
C        6.4371750        0.8019580        3.1348030
H        4.5318420        2.6096070        5.4503550
H        5.7237460        3.2342980        4.2893480
H        6.2215660        2.0736970        5.5461170
H        4.4742690       -0.9573860        4.0517890
H        3.7890230        0.0879110        5.3120790
H        5.4956580       -0.3992200        5.4019490
H        6.3154320       -0.0633230        2.4669290
H        7.2181400        0.5456540        3.8656920
H        6.8074820        1.6498400        2.5393170
H       -3.5622580        1.5049300        0.5078740
H       -1.6612920        2.0693780       -3.3312330
