77
Mol_000085_2D_DFT last geometry from G09 out file
Ru       -0.2016380       -0.0471380        0.7306430
C       -1.4878740       -0.7660990       -0.3317530
Cl       -1.4557910        0.1882790        2.7840270
Cl        1.7285280       -0.9390810       -0.4160650
H       -2.0636280       -0.2864230       -1.1271760
H       -1.6943810       -1.8425960       -0.1496400
C       -0.1712930        1.8298630        0.2004980
N        0.7908890        2.7161750        0.6981310
N       -1.0215560        2.5603760       -0.6177550
C        0.6358260        4.1249650        0.1581540
C        2.0464860        2.3507150        1.3562920
C       -0.6522320        4.0017250       -0.6965670
H        1.4962430        4.3128210       -0.4979690
C        3.2050310        2.1470900        0.5467700
C        2.1173670        2.3004290        2.7793190
C        4.4375400        1.8191310        1.1766200
C        4.5004870        1.6665850        2.5918280
C        3.3563000        1.9444840        3.3925060
C       -2.2010420        2.1608430       -1.3657350
C       -3.4832270        2.2601340       -0.7527920
C       -2.0480960        1.7963190       -2.7362650
C       -4.6378900        1.9456400       -1.5275820
C       -4.4996980        1.5367330       -2.8864740
C       -3.2125130        1.4911340       -3.4991930
C        0.6191250        5.2520920        1.1962440
C        1.7375870        6.1156530        1.2842540
C       -0.4861250        5.4961620        2.0489670
C        1.7573510        7.1931780        2.1950620
H        2.6024240        5.9443670        0.6400350
C        0.6494640        7.4261090        3.0364600
H        2.6308140        7.8455840        2.2455500
C       -0.4721170        6.5707410        2.9597190
H        0.6585850        8.2593790        3.7412700
H       -1.3320520        6.7388760        3.6105750
H       -1.3588200        4.8438040        2.0195270
H       -0.4788360        4.2927930       -1.7423130
H       -1.4729040        4.6196810       -0.3112550
C        3.1537140        2.2465760       -0.9718300
H        2.1308860        2.2822260       -1.3491070
H        3.6225460        1.3699910       -1.4346270
H        3.6889550        3.1398440       -1.3372550
C        0.9171630        2.6339340        3.6497810
H        0.6883520        1.8208440        4.3501860
H        0.0196770        2.7987370        3.0569880
H        1.1065660        3.5444100        4.2396180
C        5.6852100        1.5982990        0.3272530
H        6.6030280        1.8437600        0.8745380
H        5.6778460        2.2134230       -0.5803060
H        5.7666150        0.5464130        0.0017960
C        5.7984400        1.1980720        3.2439830
H        5.6219530        0.7365430        4.2210550
H        6.5054580        2.0320060        3.3991760
H        6.3101640        0.4506490        2.6243710
C        3.4601420        1.8623290        4.9131970
H        2.6407150        2.3854960        5.4137340
H        4.3976630        2.3028050        5.2798180
H        3.4333370        0.8152830        5.2614350
C       -3.6248400        2.6758470        0.7043470
H       -2.6577290        2.7451490        1.2033080
H       -4.2124730        1.9420700        1.2727330
H       -4.1364040        3.6483420        0.7959150
C       -0.6661030        1.7027480       -3.3696580
H       -0.5253170        2.4674050       -4.1510890
H       -0.5095850        0.7232150       -3.8443400
H        0.1270550        1.8251570       -2.6303690
C       -6.0281680        2.0429590       -0.9068970
H       -6.4219570        1.0467020       -0.6412310
H       -6.7486820        2.4998940       -1.5991720
H       -6.0332870        2.6423250        0.0081670
C       -5.7381550        1.1498240       -3.6892250
H       -6.5088940        0.6969710       -3.0543920
H       -5.5053220        0.4267200       -4.4789650
H       -6.1960210        2.0281180       -4.1775400
C       -3.0885420        1.1118630       -4.9722460
H       -2.1163690        1.3870370       -5.3916970
H       -3.8565580        1.6084860       -5.5813840
H       -3.2094160        0.0253110       -5.1235860
