83
Mol_000180_2D_DFT last geometry from G09 out file
 Ru       -0.1598380       -0.1081990        0.1516660
 C        0.8319860       -0.3252580       -1.3672880
 Cl       -2.3597850       -0.9371030       -0.3304730
 Cl        1.3455110       -0.6587790        1.9408480
 H        1.2052360        0.4695800       -2.0228060
 H        1.1073590       -1.3627210       -1.6371750
 C       -0.2258850        1.8393810       -0.0632970
 N        0.7009410        2.7708150        0.4334190
 N       -1.1202110        2.5738660       -0.8713880
 C        0.5948060        4.0662000       -0.3290650
 C        1.7806440        2.5809420        1.3725640
 C        0.9777100        5.4082720        0.3084870
 C       -0.8824010        4.0542630       -0.7035590
 H        1.2025560        3.9448370       -1.2427890
 C        0.7017190        6.5061980       -0.7614770
 H        2.0366120        5.4294240        0.6021130
 H        0.3756730        5.5989360        1.2079930
 C       -0.7383870        6.4491560       -1.3438630
 H        1.4314100        6.3966710       -1.5818760
 H        0.8775080        7.4986750       -0.3166820
 C       -1.1429840        5.0349070       -1.8554180
 H       -1.4570430        6.7677360       -0.5693150
 H       -0.8278600        7.1728310       -2.1698780
 H       -2.2004400        5.0344350       -2.1554860
 H       -0.5419670        4.7641080       -2.7357230
 H       -1.4836780        4.3824040        0.1616030
 C        1.5754950        2.7257960        2.7828690
 C        3.1073960        2.3709860        0.9211700
 C        2.6905150        2.5963690        3.6422200
 C        4.0012200        2.3466640        3.1826550
 H        2.5207940        2.6870050        4.7135750
 C        4.2006630        2.2468030        1.7876890
 H        5.1931080        2.0621170        1.3801070
 C       -2.4125770        2.1726350       -1.3898380
 C       -2.6056960        1.8188770       -2.7619350
 C       -3.5672490        2.2603840       -0.5690930
 C       -3.9193720        1.5550550       -3.2148280
 C       -5.0572740        1.6281470       -2.3843780
 H       -4.0523150        1.2702910       -4.2569340
 C       -4.8607320        1.9944760       -1.0346570
 H       -5.7027290        2.0544620       -0.3472250
 C        0.1948010        3.0258460        3.3943890
 C        0.1842270        4.3816600        4.1599390
 C       -0.3075950        1.8840900        4.3238170
 H       -0.5279300        3.1099900        2.5748910
 H        0.8195240        4.3473370        5.0573360
 H       -0.8400450        4.6163610        4.4891650
 H        0.5392390        5.2124800        3.5337020
 H       -1.3278200        2.1099470        4.6708660
 H        0.3315580        1.7737240        5.2125030
 H       -0.3240920        0.9211030        3.8015230
 Cl        3.4779650        2.2526520       -0.8680080
 C        5.1860840        2.1656550        4.1409430
 C        5.0333570        0.8757980        4.9960980
 C        5.4277880        3.4142050        5.0333610
 H        6.0889050        2.0347200        3.5207920
 H        4.1665460        0.9379530        5.6707200
 H        5.9312270        0.7182450        5.6138910
 H        4.8955290       -0.0085470        4.3570720
 H        6.3304660        3.2737230        5.6479390
 H        4.5853520        3.5968700        5.7171290
 H        5.5695090        4.3187870        4.4225830
 C       -1.4412110        1.6851530       -3.7581090
 C       -1.5691570        2.6644940       -4.9604170
 C       -1.2989660        0.2224620       -4.2710200
 H       -0.5158280        1.9386010       -3.2250790
 H       -2.4406580        2.4262230       -5.5876760
 H       -0.6747720        2.5937460       -5.5992050
 H       -1.6703740        3.7081040       -4.6325550
 H       -0.3910290        0.1244870       -4.8867120
 H       -2.1563740       -0.0695240       -4.8951330
 H       -1.2345840       -0.4866250       -3.4373010
 Cl       -3.4270480        2.7015330        1.2000120
 C       -6.4675780        1.3052650       -2.8961670
 C       -6.5916710       -0.1800990       -3.3384540
 C       -6.9226400        2.2736660       -4.0232480
 H       -7.1610100        1.4473190       -2.0503410
 H       -5.9555640       -0.3983340       -4.2093050
 H       -7.6320700       -0.4101270       -3.6161280
 H       -6.2937900       -0.8601880       -2.5271150
 H       -6.2965700        2.1741700       -4.9225900
 H       -6.8732040        3.3219430       -3.6916190
 H       -7.9621350        2.0576880       -4.3149180
