55
Mol_000177_2D_DFT last geometry from G09 out file
 Ru       -0.0548070       -0.2011030        0.5397360
 C       -1.1029950       -0.9588150       -0.7376250
 Cl       -1.5253580        0.1115700        2.4362440
 Cl        2.0960730       -0.8412100       -0.3295850
 H       -1.4731780       -0.4949380       -1.6591740
 H       -1.3447300       -2.0326430       -0.5948480
 C       -0.0404330        1.6255910       -0.0916650
 N        0.9739150        2.5109600        0.2567010
 N       -0.8872390        2.3042170       -0.9682410
 C        0.7821780        3.8652450       -0.3366610
 C        1.9936410        2.3137470        1.2608990
 C       -0.2902570        3.6024250       -1.4099050
 H        0.4412780        4.5698590        0.4404510
 H        0.1569310        3.4987260       -2.4114320
 C        1.6420100        2.0463730        2.6044470
 C        3.3559470        2.4560420        0.9178090
 C        2.6477540        1.8865000        3.5773480
 C        4.0207650        2.0180250        3.2527870
 H        2.3451220        1.6628370        4.6007570
 C        4.3486290        2.3142810        1.9054040
 H        5.3972770        2.4121870        1.6180110
 C       -2.2159250        1.9693620       -1.4067150
 C       -2.5374720        2.0323310       -2.7852740
 C       -3.2357390        1.6608420       -0.4773400
 C       -3.8526830        1.7845700       -3.2214610
 C       -4.8862290        1.4581760       -2.3063100
 H       -4.0657830        1.8383280       -4.2897780
 C       -4.5431250        1.3983260       -0.9328060
 H       -5.3113770        1.1517970       -0.1972920
 H       -1.7612660        2.2582360       -3.5174940
 H       -3.0041880        1.6085810        0.5836130
 H        1.7189750        4.2428240       -0.7639990
 C       -6.3236030        1.1830230       -2.7678340
 C       -6.4129020       -0.0616280       -3.6952530
 C       -6.9721440        2.4294720       -3.4333660
 H       -6.9157580        0.9545730       -1.8656500
 H       -5.8686930        0.0950730       -4.6388390
 H       -7.4628050       -0.2780260       -3.9468770
 H       -5.9897650       -0.9515210       -3.2055820
 H       -8.0255790        2.2274870       -3.6823740
 H       -6.4554630        2.7057010       -4.3648800
 H       -6.9415300        3.2991710       -2.7599300
 H       -1.0606130        4.3824400       -1.4443480
 H        0.5946860        1.9590200        2.8868980
 H        3.6414740        2.6343460       -0.1189560
 C        5.1259090        1.8316680        4.3005360
 C        5.1829430        0.3666190        4.8197760
 C        5.0068100        2.8427170        5.4747450
 H        6.0875490        2.0323840        3.7982230
 H        4.2667260        0.0952240        5.3652270
 H        6.0344480        0.2352010        5.5056490
 H        5.3001960       -0.3434730        3.9877570
 H        5.8560460        2.7281740        6.1663390
 H        4.0836960        2.6866010        6.0526140
 H        5.0038610        3.8803040        5.1077230
