91
Mol_000258_2D_DFT last geometry from G09 out file
 Ru        0.1434710        0.1444120       -0.0916820
 C       -1.0819660       -0.6622950       -1.1604340
 Cl       -0.9170640       -0.1362850        2.0588050
 Cl        1.9290820       -0.0232240       -1.7731460
 H       -1.7549590       -0.2495570       -1.9144910
 H       -1.0778830       -1.7710440       -1.0654740
 C       -0.1585020        2.0722970       -0.2036240
 N        0.6481770        2.9408540        0.5320820
 N       -1.0362830        2.8378930       -0.9503940
 C        0.5035760        4.3810000        0.0896020
 C        1.5818400        2.4753420        1.5575190
 C       -0.8329830        4.3366960       -0.7557010
 H        0.3553100        4.9953040        0.9827490
 H       -0.6432290        4.7613270       -1.7479010
 C        1.4451510        2.8025710        2.9449110
 C        2.6583740        1.6524980        1.1377650
 C        2.4294410        2.3040240        3.8285820
 C        3.4959660        1.4773630        3.4116710
 H        2.3625050        2.5361310        4.8894370
 C        3.5973470        1.1384320        2.0441560
 H        4.4033900        0.5000550        1.6900150
 C       -2.1180190        2.2924570       -1.7530500
 C       -2.1229120        2.3371600       -3.1802350
 C       -3.2113630        1.7096220       -1.0588570
 C       -3.2790510        1.8534800       -3.8404080
 C       -4.3862150        1.3141690       -3.1499260
 H       -3.3281210        1.8790980       -4.9271720
 C       -4.3362890        1.2230320       -1.7369870
 H       -5.1636440        0.7820200       -1.1861370
 C       -0.9365720        2.8233800       -4.0254290
 C       -1.3011590        4.0339820       -4.9313530
 C       -0.3327330        1.6644010       -4.8717070
 H       -0.1469860        3.1423570       -3.3382650
 H       -2.0482310        3.7623910       -5.6910340
 H       -0.4050070        4.3896000       -5.4624480
 H       -1.7079550        4.8751790       -4.3511110
 H        0.5439840        2.0278450       -5.4294610
 H       -1.0552910        1.2728010       -5.6026960
 H        0.0014440        0.8374550       -4.2323240
 H       -3.1582690        1.6213680        0.0230100
 C        1.7950140        4.9855590       -0.6510660
 C        2.2941920        4.1038750       -1.8270760
 C        1.4842830        6.4080960       -1.2128590
 C        2.9555410        5.1765780        0.3756600
 H        2.4663590        3.0640160       -1.5365360
 H        3.2458690        4.5050530       -2.2065220
 H        1.5904800        4.1059680       -2.6688170
 H        2.3941730        6.8028820       -1.6883540
 H        1.1955130        7.1134840       -0.4224060
 H        0.6993480        6.4078360       -1.9806540
 H        3.3644750        4.2303630        0.7389870
 H        2.6324940        5.7671030        1.2459780
 H        3.7788160        5.7264840       -0.1040340
 C       -5.5583210        0.8449440       -3.9526890
 O       -6.5711770        0.3223360       -3.1445110
 O       -5.6480510        0.9035780       -5.2012250
 C       -7.7789290       -0.1748240       -3.8397820
 H       -8.4336540       -0.5308410       -3.0371890
 H       -8.2559120        0.6360650       -4.4072390
 H       -7.5169420       -0.9920190       -4.5257250
 C       -2.0872250        5.1584840       -0.1768360
 C       -2.6690610        4.5742050        1.1400900
 C       -1.6665380        6.6359600        0.1057090
 C       -3.2233650        5.2506430       -1.2459340
 H       -2.0217110        4.7833690        1.9990540
 H       -2.8282570        3.4930730        1.0922330
 H       -3.6411210        5.0440640        1.3512460
 H       -1.3434410        7.1549780       -0.8062170
 H       -0.8691910        6.7231280        0.8538600
 H       -2.5378420        7.1786940        0.5007660
 H       -3.7486220        4.3055110       -1.3991370
 H       -2.8383290        5.5915410       -2.2181080
 H       -3.9692790        5.9880780       -0.9141100
 C        0.2906020        3.6238130        3.5355850
 C        0.7705300        4.9947200        4.0955220
 C       -0.4922640        2.8386060        4.6267300
 H       -0.4198350        3.8139180        2.7273670
 H        1.4490430        4.8599090        4.9503570
 H       -0.0904250        5.5843620        4.4469740
 H        1.3055970        5.5886060        3.3405510
 H        0.1230590        2.6495470        5.5180440
 H       -0.8428470        1.8742140        4.2408610
 H       -1.3686610        3.4230290        4.9485940
 H        2.7759460        1.4257030        0.0829570
 C        4.4626280        0.9947570        4.4449840
 O        5.4267070        0.1410140        3.9020730
 O        4.4349640        1.3010870        5.6601810
 C        6.4231770       -0.4120030        4.8441830
 H        7.0661800       -1.0473870        4.2256600
 H        7.0013030        0.3968960        5.3120000
 H        5.9247290       -1.0005400        5.6266680
