111
Mol_000256_2D_DFT last geometry from G09 out file
 Ru        0.4279060        0.1463460       -0.5645680
 C       -1.1225870       -0.6939050       -1.0838870
 Cl        0.2990260       -0.5819740        1.7918820
 Cl        1.1657590        0.0399060       -2.9479890
 H       -1.9356410       -0.3060850       -1.7079700
 H       -1.1794250       -1.7875580       -0.8854980
 C       -0.1025210        2.0142580       -0.3951820
 N        0.7990890        2.8851870        0.2420130
 N       -1.1739760        2.7665520       -0.8832360
 C        0.5329220        4.3359020       -0.1267850
 C        1.8016090        2.4995610        1.2422430
 C       -0.9189330        4.2821410       -0.7608330
 H        0.5148910        4.9248840        0.7939250
 H       -0.8498130        4.6537970       -1.7890290
 C        1.7680910        3.0606640        2.5638150
 C        2.8581260        1.5631490        0.9821730
 C        2.8549200        2.8876650        3.4434110
 C        3.9918230        2.1053940        3.1173830
 H        2.7777180        3.3312070        4.4307590
 C        3.9217930        1.3997930        1.8880820
 H        4.6978090        0.6861710        1.6377190
 C       -2.3422940        2.2396180       -1.6042140
 C       -2.4088080        2.2630820       -3.0408100
 C       -3.5172990        1.7702920       -0.8891310
 C       -3.5772680        1.8384490       -3.7100840
 C       -4.7180260        1.3424820       -3.0313240
 H       -3.5831700        1.8916460       -4.7926130
 C       -4.6427970        1.3110660       -1.6154220
 H       -5.4728900        0.9093060       -1.0462340
 C       -1.2783680        2.7751240       -3.9604540
 C       -1.6032680        4.1772750       -4.5610270
 C       -0.9569800        1.8061370       -5.1356760
 H       -0.3662820        2.8492860       -3.3650990
 H       -1.7907900        4.9401600       -3.7951830
 H       -2.4969750        4.1294510       -5.2009120
 H       -0.7650230        4.5225680       -5.1865290
 H       -0.8097980        0.7817790       -4.7801810
 H       -0.0234230        2.1231360       -5.6254530
 H       -1.7464620        1.8116760       -5.9023090
 N       -3.6708830        1.8241940        0.5412450
 C       -5.0198140        2.0925560        1.0761930
 C       -2.9267520        0.8907470        1.4091930
 H       -4.9140980        2.4915990        2.0975490
 H       -5.6645000        1.1906940        1.1478560
 H       -5.5384220        2.8429610        0.4672250
 H       -3.4279490       -0.0978600        1.4746330
 H       -2.8617680        1.3015830        2.4284270
 H       -1.9176080        0.7248740        1.0463750
 C        1.6763150        5.0014760       -1.0420010
 C        1.8516110        4.2826660       -2.4102680
 C        1.3612430        6.4957450       -1.3577860
 C        3.0298320        5.0264810       -0.2646520
 H        1.1012530        4.6188870       -3.1361040
 H        1.7757440        3.1961550       -2.3337240
 H        2.8356030        4.5265940       -2.8381400
 H        0.4374460        6.6215280       -1.9326930
 H        2.1798110        6.8994190       -1.9728310
 H        1.2969800        7.1140420       -0.4522730
 H        3.7689370        5.6017980       -0.8431100
 H        3.4476650        4.0343080       -0.0873320
 H        2.9215630        5.5188720        0.7130180
 N       -5.8560810        0.8974370       -3.7200170
 C       -7.0394120        0.4369910       -2.9834800
 C       -5.8530620        0.8258950       -5.1873260
 H       -7.8494180        0.2207560       -3.6901230
 H       -7.4071450        1.2069910       -2.2838020
 H       -6.8439000       -0.4843180       -2.4039750
 H       -5.7790320        1.8249080       -5.6535880
 H       -6.7860870        0.3657130       -5.5335760
 H       -5.0172580        0.2119770       -5.5650030
 C       -2.0677460        5.1935890       -0.0863500
 C       -2.4959190        4.7518880        1.3380580
 C       -1.5999600        6.6795330        0.0257840
 C       -3.3311010        5.2425030       -1.0043380
 H       -1.7675050        5.0598910        2.0946940
 H       -2.6549050        3.6732770        1.3836880
 H       -3.4455990        5.2447230        1.5975400
 H       -1.4259200        7.1424900       -0.9538260
 H       -0.6978220        6.8011620        0.6356300
 H       -2.4005980        7.2524400        0.5173430
 H       -3.0774320        5.5451720       -2.0294400
 H       -4.0314820        5.9938680       -0.6078910
 H       -3.8589700        4.2901920       -1.0558670
 C        0.5196920        3.7324850        3.1598500
 C        0.7703320        5.1716110        3.6908950
 C       -0.0948770        2.8360670        4.2772420
 H       -0.2365390        3.7797390        2.3771310
 H        1.1941980        5.8304680        2.9183500
 H        1.4684580        5.1730040        4.5403000
 H       -0.1709620        5.6216070        4.0428380
 H       -1.0614970        3.2518560        4.6047060
 H        0.5593970        2.7771470        5.1592880
 H       -0.2605230        1.8149570        3.9097910
 N        2.8513970        0.7035170       -0.2214300
 C        3.7161920        1.2814300       -1.3069730
 C        3.3189280       -0.7090050        0.0263740
 H        3.6070760        0.6750980       -2.2099460
 H        4.7748810        1.2923830       -0.9870700
 H        3.4098310        2.2984000       -1.5345710
 H        2.8171410       -1.1171940        0.9075970
 H        4.4141750       -0.7788720        0.1558830
 H        3.0544900       -1.3030970       -0.8588870
 N        5.0968130        1.9960190        3.9755620
 C        5.0766750        2.6503120        5.2895820
 C        6.1917740        1.0704410        3.6594840
 H        4.3149560        2.2212420        5.9677330
 H        4.8783610        3.7304650        5.1938910
 H        6.0559370        2.5367520        5.7700380
 H        5.8659110        0.0131990        3.6535430
 H        6.9846090        1.1718890        4.4102010
 H        6.6370540        1.2960920        2.6760920
