49
Mol_000320_2D_DFT last geometry from G09 out file
 Ru        0.1191120       -0.0423150        0.2802580
 C       -1.0804450       -0.7985980       -0.8543480
 Cl       -1.0643330       -0.0019330        2.3927140
 Cl        2.0928250       -0.4074790       -1.0695460
 H       -1.6781940       -0.3284650       -1.6403360
 H       -1.1625210       -1.9035690       -0.7678180
 C       -0.0761030        1.8590040       -0.0462370
 N        0.8909920        2.7481060        0.4024340
 N       -1.0687730        2.6061350       -0.6655680
 C        2.0022720        2.4130650        1.2732170
 C        0.6817220        4.1474940       -0.1639620
 C        3.3171930        2.2727930        0.7682910
 C        1.7708490        2.2774040        2.6637480
 C        4.3871870        2.0161260        1.6486620
 C        4.1563720        1.8837780        3.0352180
 H        5.3944780        1.8951030        1.2471210
 C        2.8435180        2.0049820        3.5379590
 H        2.6494290        1.8859420        4.6049950
 C       -0.8886380        4.1050050       -0.3822310
 C       -2.3254020        2.1066730       -1.1775810
 C       -3.3425220        1.6628040       -0.2975700
 C       -2.5538990        2.0884930       -2.5743220
 C       -4.5758430        1.2153610       -0.8150130
 C       -4.8081790        1.2107080       -2.2078850
 H       -5.3487220        0.8640600       -0.1295120
 C       -3.7914830        1.6454390       -3.0864400
 H       -3.9551940        1.6311750       -4.1652240
 H       -5.7641530        0.8643080       -2.6039230
 C        1.4758140        4.2669560       -1.4977880
 H        1.1923480        3.4815610       -2.2096030
 H        2.5497670        4.1728420       -1.2982150
 H        1.3155580        5.2470810       -1.9666250
 C        1.1521750        5.2502950        0.8088880
 H        0.8714290        6.2371780        0.4144430
 H        2.2449710        5.2327480        0.9078850
 H        0.7235170        5.1428710        1.8104580
 C       -1.3850030        4.9951990       -1.5416670
 H       -1.1282490        6.0437960       -1.3340060
 H       -2.4768130        4.9363090       -1.6336090
 H       -0.9476240        4.7200900       -2.5065170
 C       -1.6940330        4.4571150        0.9023680
 H       -1.3696230        3.8605980        1.7636740
 H       -2.7608160        4.2631730        0.7350750
 H       -1.5889460        5.5213970        1.1511860
 H        3.4942610        2.3120100       -0.3029960
 H        0.7580460        2.3611200        3.0515800
 H        4.9863270        1.6741910        3.7121110
 H       -3.1536730        1.6333670        0.7732660
 H       -1.7598780        2.4005040       -3.2520060
