97
Mol_000322_2D_DFT last geometry from G09 out file
 Ru        0.1958890        0.0134580       -0.8220770
 C       -1.3617620       -0.8825770       -1.0644730
 Cl        0.7663700       -0.8430660        1.3648920
 Cl        0.6388010        0.4943400       -3.1729080
 H       -2.3920430       -0.5340860       -0.9811400
 H       -1.2221250       -1.9474920       -1.3553230
 C       -0.2327730        1.8687300       -0.4034860
 N        0.8121860        2.7640630       -0.1603880
 N       -1.4168510        2.5766440       -0.4671450
 C        2.0175540        2.4245740        0.6063370
 C        0.3667740        4.2116850       -0.4930980
 C        3.2929660        2.0929350        0.0483490
 C        1.8763110        2.4674440        2.0181960
 C        4.3579280        1.8644950        0.9602580
 C        4.2287960        1.9243610        2.3631680
 H        5.3364650        1.6144000        0.5494260
 C        2.9498470        2.2281990        2.8855510
 H        2.7890790        2.2616260        3.9646570
 C       -1.2110200        4.0923820       -0.1688060
 C       -2.6772130        2.0125950       -0.9311840
 C       -3.6754650        1.4710540       -0.0593970
 C       -2.8929670        1.9997000       -2.3323290
 C       -4.8728030        1.0010640       -0.6625260
 C       -5.1120810        1.0121120       -2.0546630
 H       -5.6502290        0.5953430       -0.0140520
 C       -4.0847120        1.5128590       -2.8905950
 H       -4.2108360        1.5171770       -3.9747050
 C       -6.4044300        0.4548210       -2.6376700
 C       -6.3120660       -1.0545360       -3.0125280
 H       -6.6801970        1.0219460       -3.5419460
 H       -7.2287640        0.5870360       -1.9179570
 C       -7.6240680       -1.6069040       -3.6106580
 H       -6.0433310       -1.6339290       -2.1133750
 H       -5.4888880       -1.1985780       -3.7318690
 H       -7.9012010       -1.0709510       -4.5326330
 H       -7.5226130       -2.6741400       -3.8622180
 H       -8.4615550       -1.5084320       -2.9013310
 C        0.7199030        4.3920380       -2.0226580
 C        0.5912720        5.7690390       -2.7290790
 H        1.7703340        4.0934780       -2.0989420
 H        0.1693250        3.6383700       -2.6005640
 H        0.9751000        6.6026480       -2.1270310
 H       -0.4355700        6.0161370       -3.0207610
 H        1.1870540        5.7389000       -3.6555270
 C        1.0546040        5.3024220        0.3832120
 C        2.5366390        5.6797740        0.1443790
 H        0.4587030        6.2165630        0.2508080
 H        0.9576880        5.0227620        1.4367300
 H        2.7422490        5.9974150       -0.8845040
 H        3.2214470        4.8652270        0.3945470
 H        2.7853700        6.5289130        0.8014920
 C       -2.0714720        5.0095820       -1.0968630
 C       -3.5902550        5.1767460       -0.8375380
 H       -1.6206560        6.0101680       -1.0386620
 H       -1.9448450        4.6790890       -2.1328620
 H       -4.1481080        4.2431910       -0.9530260
 H       -3.9886890        5.8884060       -1.5788370
 H       -3.8154190        5.5877150        0.1540920
 C       -1.6120950        4.2999740        1.3401290
 C       -1.6744660        5.7169940        1.9759140
 H       -2.6192160        3.8838750        1.4165290
 H       -0.9768510        3.6594540        1.9657000
 H       -2.1107860        6.4704730        1.3084290
 H       -0.6979870        6.0903430        2.3019840
 H       -2.3146340        5.6697480        2.8716430
 C        3.5903480        1.9293120       -1.4526130
 C        4.1253940        0.5036090       -1.7785250
 C        4.5900360        2.9948310       -1.9894070
 H        2.6522460        2.0440400       -2.0048030
 H        3.4635470       -0.2770640       -1.3816780
 H        5.1306650        0.3388240       -1.3629210
 H        4.1819570        0.3696790       -2.8684970
 H        4.7348920        2.8553380       -3.0719400
 H        5.5754330        2.9051900       -1.5079550
 H        4.2322970        4.0198620       -1.8262780
 H        0.8939900        2.6697100        2.4386740
 C        5.4048590        1.6125710        3.2788180
 C        5.4915680        0.1065940        3.6685940
 H        5.3287330        2.2089980        4.2032180
 H        6.3498000        1.9034970        2.7910590
 C        6.6816370       -0.2054860        4.6015540
 H        5.5704520       -0.4988690        2.7507420
 H        4.5494480       -0.1956120        4.1544240
 H        6.6111310        0.3592700        5.5453520
 H        6.7113860       -1.2768900        4.8545780
 H        7.6424720        0.0531310        4.1277090
 C       -3.5229990        1.3237570        1.4675290
 C       -3.5111550       -0.1643640        1.9263140
 C       -4.6237370        2.1025000        2.2468700
 H       -2.5487620        1.7358500        1.7518940
 H       -2.6601730       -0.7096470        1.5022950
 H       -4.4382660       -0.6876170        1.6488790
 H       -3.4162620       -0.2112680        3.0222200
 H       -4.4054990        2.0833560        3.3258470
 H       -5.6156700        1.6491330        2.1040380
 H       -4.6945840        3.1534420        1.9322350
 H       -2.0974950        2.3513250       -2.9855150
