81
M00000485_2D_DFT last geometry from G09 out file
 Ru        0.5338500        0.3922770       -0.4535850
 C       -0.9750240       -0.5698360       -0.7448420
 Cl        0.9921210       -0.3830180        1.7878430
 Cl        1.3002710        0.6112740       -2.7421360
 H       -2.0147680       -0.2799160       -0.6016210
 H       -0.7875070       -1.6271510       -1.0323250
 C        0.0307270        2.2807500       -0.2806260
 N        0.9586200        3.2024400        0.2288080
 N       -1.0647590        2.9874740       -0.7653600
 C        0.5565110        4.6545920       -0.0438780
 C        2.0165260        2.8588030        1.1928200
 C       -0.8888370        4.5198940       -0.6802080
 H        0.4846660        5.1661880        0.9255290
 H       -0.8362950        4.8621390       -1.7161900
 C        1.8654620        3.2617030        2.5625890
 C        3.2165740        2.1520680        0.8428780
 C        2.8878380        3.0128020        3.5097130
 C        4.0309190        2.2782410        3.1701520
 H        2.7554560        3.3430670        4.5388370
 C        4.1653900        1.8326920        1.8518470
 H        5.0479960        1.2564180        1.5798910
 C       -2.1791580        2.3622410       -1.4762690
 C       -2.2299530        2.3246730       -2.9112790
 C       -3.2842350        1.7893140       -0.7526360
 C       -3.3088910        1.6764880       -3.5677410
 C       -4.3872100        1.1352570       -2.8555250
 H       -3.3123160        1.6233030       -4.6553250
 C       -4.3761810        1.2188110       -1.4569650
 H       -5.2116890        0.8039760       -0.8958550
 C       -1.2915750        3.0285310       -3.8836600
 C       -0.7850980        2.2628760       -5.1029810
 O       -1.0389660        4.2551910       -3.7619390
 H       -1.4113610        2.5075970       -5.9776410
 H        0.2321840        2.6065340       -5.3261300
 H       -0.7710840        1.1799750       -4.9526050
 C       -3.3849870        1.6492010        0.7624750
 C       -4.7423380        1.9251990        1.4240680
 O       -2.4199810        1.2505030        1.4535630
 H       -5.3474910        1.0038920        1.4444480
 H       -4.5614840        2.2144940        2.4661510
 H       -5.3211400        2.7050160        0.9135000
 C        1.6370890        5.4687550       -0.9127670
 C        2.9625210        5.6132240       -0.1005290
 C        1.9113030        4.8137200       -2.2951370
 C        1.1728150        6.9296750       -1.1997330
 H        3.6140380        6.3413290       -0.6059530
 H        3.5215720        4.6801250       -0.0393920
 H        2.7773780        5.9922220        0.9175710
 H        2.0522220        3.7353840       -2.2299610
 H        2.8362750        5.2313840       -2.7179970
 H        1.1008280        5.0217780       -3.0019830
 H        1.0365180        7.5235860       -0.2855010
 H        0.2549880        6.9730020       -1.7944680
 H        1.9588580        7.4198020       -1.7929460
 H       -5.2178420        0.6618280       -3.3794290
 C       -2.1105970        5.3443700       -0.0330270
 C       -2.5163150        4.9018340        1.3972460
 C       -1.7757290        6.8655950        0.0712410
 C       -3.3509510        5.2800240       -0.9863040
 H       -2.4890880        3.8249670        1.5416630
 H       -3.5312620        5.2653920        1.6197760
 H       -1.8491180        5.3313900        2.1525870
 H       -2.6237890        7.3648300        0.5636080
 H       -1.6423250        7.3390040       -0.9085860
 H       -0.8884570        7.0639820        0.6822910
 H       -3.0698540        5.4947260       -2.0266600
 H       -4.0812490        6.0419980       -0.6748760
 H       -3.8660930        4.3168380       -0.9655230
 C        0.6046050        3.8287500        3.1856070
 C        0.7430800        5.0412240        4.1200400
 O       -0.5086250        3.2806400        3.0165940
 H        0.9492670        4.7038120        5.1486230
 H        1.5531500        5.7182610        3.8182680
 H       -0.2110620        5.5818920        4.1479000
 C        3.7768630        1.7921420       -0.5378760
 C        4.2979900        0.3687980       -0.7569760
 O        3.9562410        2.6733130       -1.4109090
 H        3.8725920       -0.3589470       -0.0576420
 H        4.0625020        0.0757740       -1.7860150
 H        5.3962160        0.3627320       -0.6583350
 H        4.7919650        2.0495750        3.9162240
