89
M00000486_2D_DFT last geometry from G09 out file
 Ru        0.2659230        0.0067930       -0.7041860
 C       -1.3276860       -0.7874490       -0.2698810
 Cl        1.2509670       -0.9383430        1.3624650
 Cl       -0.0074370        0.1730120       -3.1322430
 H       -2.1377770       -0.3849050        0.3411210
 H       -1.4385010       -1.8596570       -0.5403950
 C       -0.0716330        1.8493280       -0.2400780
 N        0.9901140        2.7112330        0.1179780
 N       -1.2063990        2.6523220       -0.3897620
 C        0.6640100        4.1595910       -0.1569290
 C        2.0561680        2.3749890        1.0491480
 C       -0.9011930        4.1482060       -0.2936060
 H        0.9567180        4.7481460        0.7196920
 H       -1.1825020        4.5781540       -1.2649430
 C        1.9400430        2.8603100        2.3716620
 C        3.2456470        1.6583990        0.7085500
 C        2.9490650        2.6739140        3.3296530
 C        4.1480440        1.9944790        3.0035700
 H        2.7850700        3.0480330        4.3408730
 C        4.2645710        1.5090640        1.6872430
 H        5.1608080        0.9495500        1.4217990
 C       -2.4304230        2.2192230       -1.0599380
 C       -2.4662420        2.3764680       -2.4629920
 C       -3.6044840        1.7176840       -0.4027330
 C       -3.5919090        2.0357640       -3.2301530
 C       -4.7564570        1.5236130       -2.6144330
 H       -3.5388130        2.1490100       -4.3129580
 C       -4.7287830        1.3886390       -1.2110490
 H       -5.6185190        0.9929330       -0.7252140
 H       -1.5713150        2.7225750       -2.9689470
 C       -3.7350070        1.5105230        1.0891850
 C       -5.1359300        1.4016880        1.7089300
 O       -2.7326440        1.4180270        1.8482220
 H       -5.8284070        2.1691530        1.3358100
 H       -5.5812510        0.4158590        1.4982830
 H       -5.0329720        1.4961070        2.7961510
 C        1.4861950        4.7615830       -1.3934500
 C        3.0034160        4.7919010       -1.0362560
 C        1.2900030        3.9484580       -2.7014290
 C        1.0713370        6.2381850       -1.6724690
 H        3.5522710        5.3559430       -1.8052250
 H        3.4382640        3.7902580       -0.9939520
 H        3.1869440        5.2851480       -0.0689500
 H        0.2726590        4.0567820       -3.1020780
 H        1.4901230        2.8816710       -2.5688820
 H        1.9758560        4.3269280       -3.4747320
 H        1.6626610        6.6172820       -2.5192410
 H        1.2680470        6.8956930       -0.8144130
 H        0.0143070        6.3387750       -1.9494050
 C       -5.9934460        1.1052950       -3.4187840
 C       -5.6933420       -0.1144650       -4.3357330
 C       -6.5976010        2.2860760       -4.2284250
 H       -6.7621490        0.7837570       -2.6952460
 H       -5.3037910       -0.9627130       -3.7535400
 H       -4.9469310        0.1318160       -5.1052750
 H       -6.6106810       -0.4428170       -4.8485030
 H       -7.5203050        1.9670090       -4.7371320
 H       -5.9014230        2.6484070       -4.9994670
 H       -6.8463560        3.1339660       -3.5722220
 C       -1.7125110        4.9940050        0.7975730
 C       -1.5367230        4.4639490        2.2481050
 C       -1.2378100        6.4817610        0.7755840
 C       -3.2291660        5.0423840        0.4333470
 H       -2.3052650        4.9071240        2.8996260
 H       -0.5652780        4.7610330        2.6668990
 H       -1.6318080        3.3765470        2.3072960
 H       -1.4292850        6.9656420       -0.1918890
 H       -0.1735410        6.5956940        1.0138780
 H       -1.8000450        7.0390320        1.5395210
 H       -3.7253090        5.8151820        1.0394510
 H       -3.7428540        4.1004530        0.6281940
 H       -3.3856330        5.3017040       -0.6250210
 H        1.0243420        3.3621680        2.6657000
 C        3.4340750        1.0034290       -0.6128220
 C        4.8290630        0.8040400       -1.1934880
 O        2.4458120        0.5705330       -1.2796950
 H        5.4975420        1.6517920       -0.9939480
 H        5.2875080       -0.1003510       -0.7598070
 H        4.7385060        0.6405140       -2.2738670
 C        5.2581140        1.7496230        4.0326990
 C        4.7854310        0.7923820        5.1637160
 C        5.8320180        3.0722280        4.6119470
 H        6.0848180        1.2422620        3.5068480
 H        3.9767590        1.2402200        5.7606020
 H        5.6193720        0.5636160        5.8453540
 H        4.4098260       -0.1544970        4.7492140
 H        5.0742650        3.6290620        5.1834560
 H        6.2027340        3.7305210        3.8115210
 H        6.6705210        2.8584750        5.2926210
