67
M00000413_2D_DFT last geometry from G09 out file
 Ru       -0.1101310        0.2455450        0.5219130
 C       -1.6499030       -0.4850190       -0.1078600
 Cl       -0.6738020        0.4363060        2.8568930
 Cl        1.3505780       -0.7220210       -1.1333960
 H       -2.4232200       -0.0572420       -0.7467040
 H       -1.7843740       -1.5493450        0.1808530
 C       -0.1648190        2.1214580       -0.0031040
 N        0.8842640        2.9857560        0.3259640
 N       -1.1149440        2.8770090       -0.6869120
 C        0.6118530        4.3966640       -0.0454560
 C        2.0039120        2.6214450        1.1830760
 C       -0.6703820        4.2790510       -0.9242030
 H        0.4041720        4.9734150        0.8646940
 H       -0.4251970        4.4013820       -1.9871380
 C        1.9322750        2.9185230        2.5739700
 C        3.1737360        2.0029770        0.6365450
 C        3.0121620        2.5238460        3.3997450
 C        4.1465650        1.8514390        2.9004130
 H        2.9488270        2.7393850        4.4676270
 C        4.2129390        1.6123060        1.5109300
 H        5.0874050        1.1277710        1.0852650
 C       -2.2944120        2.3757500       -1.3642000
 C       -2.2162420        2.0571250       -2.7485140
 C       -3.5227440        2.2110740       -0.6552790
 C       -3.3971680        1.6251060       -3.4028560
 C       -4.6323420        1.4854050       -2.7342620
 H       -3.3388090        1.3843760       -4.4657680
 C       -4.6678680        1.7627890       -1.3489430
 H       -5.5931000        1.6310720       -0.7922320
 C       -0.9241140        2.1483840       -3.5452730
 H       -0.7966400        3.1488660       -3.9919650
 H       -0.9402850        1.4318990       -4.3771890
 H       -0.0352550        1.9329720       -2.9436810
 C       -3.6281450        2.4968220        0.8181740
 O       -4.6109600        1.7015710        1.4103650
 O       -2.9504920        3.3235520        1.4629130
 C       -4.7781890        1.8516140        2.8767860
 H       -5.5728870        1.1438020        3.1354700
 H       -3.8397370        1.5968170        3.3850980
 H       -5.0692440        2.8813690        3.1253910
 C        1.7468900        5.2122670       -0.7487810
 F        3.0245180        4.9628350       -0.2296730
 F        1.8133680        5.0800440       -2.1430810
 F        1.5011390        6.5933230       -0.4999460
 C       -5.8867330        1.0542140       -3.4734940
 H       -6.5070530        0.3846230       -2.8603320
 H       -5.6482890        0.5340470       -4.4112470
 H       -6.5087450        1.9280100       -3.7302690
 C       -1.6858090        5.4343150       -0.6373580
 F       -2.9930140        5.1617620       -1.0644640
 F       -1.7518900        5.8610510        0.6961680
 F       -1.2697390        6.5678190       -1.3926010
 C        0.7699940        3.6641290        3.2095690
 H        0.6705320        3.3834090        4.2652310
 H       -0.1902570        3.4522050        2.7311260
 H        0.9434740        4.7537660        3.1813070
 C        3.3791540        1.8450460       -0.8471400
 O        4.4987300        1.0630560       -1.1259180
 O        2.6940630        2.3738670       -1.7488800
 C        4.7851260        0.8161950       -2.5552510
 H        5.6835610        0.1895490       -2.5516450
 H        3.9404330        0.2914470       -3.0194260
 H        4.9666760        1.7640730       -3.0806080
 C        5.2580190        1.3860790        3.8239130
 H        5.2922270        1.9759770        4.7503150
 H        6.2421240        1.4536160        3.3385280
 H        5.1082200        0.3316620        4.1108110
