91
M00000414_2D_DFT last geometry from G09 out file
 Ru        0.1689400        0.1866640       -0.4607380
 C       -1.3564230       -0.5644440       -1.0901460
 Cl       -0.0204930       -0.4719410        1.8577320
 Cl        1.2473480        0.1946510       -2.6621140
 H       -2.2673980       -0.0959080       -1.4645760
 H       -1.3084770       -1.6746810       -1.1473900
 C       -0.1143300        2.1237600       -0.3148130
 N        0.9045080        2.9328160        0.2048070
 N       -1.1478930        2.9312090       -0.7653330
 C        0.6493700        4.4179620       -0.0673560
 C        1.8831350        2.4651520        1.2226730
 C       -0.8092460        4.4274850       -0.6935850
 H        0.6388220        4.9294030        0.9040500
 H       -0.7278400        4.7718300       -1.7316530
 C        1.5524740        2.6174820        2.6097780
 C        3.1495330        1.8772130        0.8712710
 C        2.4826340        2.2182640        3.5953610
 C        3.7331920        1.6618070        3.2777330
 H        2.1987820        2.3145520        4.6442720
 C        4.0327610        1.5036160        1.9122220
 H        4.9906760        1.0639940        1.6416350
 C       -2.3429950        2.4484500       -1.4629760
 C       -2.4158020        2.5524820       -2.8920580
 C       -3.4540750        1.9187370       -0.7259360
 C       -3.6283910        2.2187360       -3.5353650
 C       -4.7645310        1.7706210       -2.8288090
 H       -3.6884970        2.3035710       -4.6192630
 C       -4.6415410        1.6099860       -1.4349250
 H       -5.4961110        1.2310700       -0.8754560
 C       -1.2269410        3.0146170       -3.7380260
 C       -1.1047770        2.3887120       -5.1475250
 H       -0.3028490        2.7916620       -3.1992120
 H       -1.2737260        4.1130260       -3.8561940
 H       -0.1591340        2.7133640       -5.6081190
 H       -1.9172560        2.6919910       -5.8240470
 H       -1.0854670        1.2916530       -5.0918340
 C       -3.4534870        1.6710000        0.7875750
 C       -4.0152500        0.3040090        1.2575750
 H       -4.0640380        2.4555950        1.2665150
 H       -2.4398980        1.7652080        1.1845560
 H       -3.4368650       -0.5335720        0.8488650
 H       -5.0713830        0.1621360        0.9873630
 H       -3.9447600        0.2445170        2.3543360
 C        1.8026770        5.1297690       -0.9369460
 C        3.0868840        5.2671080       -0.0597250
 C        2.1023970        4.3795220       -2.2658710
 C        1.4465000        6.5923520       -1.3482860
 H        3.8580430        5.8176780       -0.6192190
 H        3.5140900        4.3121060        0.2433560
 H        2.8744060        5.8407130        0.8563680
 H        3.0538560        4.7386130       -2.6856770
 H        1.3274350        4.5790860       -3.0178290
 H        2.1765870        3.3003710       -2.1423100
 H        2.2826350        6.9867780       -1.9451260
 H        1.3211630        7.2592040       -0.4868630
 H        0.5511940        6.6541580       -1.9771840
 C       -6.0662170        1.4654110       -3.5518720
 H       -5.8940880        0.8504220       -4.4485880
 H       -6.5609480        2.3923070       -3.8872690
 H       -6.7743160        0.9285260       -2.9059130
 C       -1.9253300        5.3912150       -0.0384350
 C       -2.3523630        5.0089190        1.4030540
 C       -1.4210780        6.8655650        0.0508650
 C       -3.1896570        5.4488690       -0.9563380
 H       -3.2647900        5.5638560        1.6688820
 H       -1.5865850        5.2874210        2.1342770
 H       -2.5665840        3.9478330        1.5137090
 H       -2.2052080        7.4639870        0.5381060
 H       -1.2381270        7.3117410       -0.9335970
 H       -0.5154390        6.9683260        0.6589510
 H       -2.9203160        5.6451440       -2.0048180
 H       -3.8360100        6.2758380       -0.6253780
 H       -3.7860740        4.5349040       -0.9262260
 C        0.2079680        3.1150350        3.1318290
 C        0.2923000        4.3728490        4.0366950
 H       -0.2413520        2.2953340        3.7154650
 H       -0.4785270        3.2994220        2.3074180
 H        0.9199540        4.1952570        4.9209800
 H       -0.7091000        4.6543080        4.3975770
 H        0.7185330        5.2360470        3.5024830
 C        3.6481830        1.6606070       -0.5603770
 C        4.5139130        0.3998770       -0.8051730
 H        4.2424260        2.5385890       -0.8652790
 H        2.8042980        1.6123080       -1.2476470
 H        4.6658310        0.2760490       -1.8874290
 H        4.0191140       -0.5088610       -0.4342140
 H        5.5081970        0.4648670       -0.3393430
 C        4.6963240        1.2016250        4.3585030
 H        4.4905560        0.1563770        4.6453440
 H        4.6086830        1.8124210        5.2688240
 H        5.7407620        1.2461890        4.0177780
