89
M00000411_2D_DFT last geometry from G09 out file
 Ru        0.2356000        0.1104870       -0.4087890
 C       -1.2639910       -0.6851100       -1.0456640
 Cl        0.0166060       -0.4356080        1.9308130
 Cl        1.3838480        0.0864050       -2.5678020
 H       -2.1783980       -0.2510040       -1.4513850
 H       -1.1893250       -1.7948700       -1.0682560
 C       -0.0625150        2.0445230       -0.3198730
 N        0.9280190        2.8773220        0.2211600
 N       -1.0705870        2.8370700       -0.8493510
 C        0.7014800        4.3461590       -0.1453910
 C        1.8392210        2.4955490        1.3280240
 C       -0.7276930        4.3342140       -0.8340370
 H        0.6542170        4.9140750        0.7926940
 H       -0.5966440        4.6269190       -1.8824030
 C        1.4267920        2.7944540        2.6704300
 C        3.1191430        1.8813300        1.1114450
 C        2.3138220        2.5688760        3.7392470
 C        3.5983650        2.0217430        3.5425590
 H        2.0017200        2.7997670        4.7569830
 C        3.9613440        1.6673890        2.2287730
 H        4.9328860        1.2168020        2.0477890
 C       -2.2334680        2.3232030       -1.5725560
 C       -2.2477320        2.3777350       -3.0049060
 C       -3.3703580        1.8087010       -0.8598990
 C       -3.4206860        2.0014980       -3.6903140
 C       -4.5799830        1.5658420       -3.0108810
 H       -3.4473870        2.0418890       -4.7783810
 C       -4.5223100        1.4610430       -1.6039200
 H       -5.3907250        1.1012580       -1.0582350
 C       -1.0530120        2.8040170       -3.8397540
 H       -1.1252240        2.3674110       -4.8441360
 H       -0.1083760        2.4695260       -3.4052870
 H       -1.0146480        3.8975310       -3.9711730
 C       -3.4291040        1.6282690        0.6615280
 C       -4.0175550        0.2875400        1.1720920
 H       -4.0496340        2.4380250        1.0815130
 H       -2.4303430        1.7345820        1.0906710
 H       -3.4370120       -0.5727610        0.8168010
 H       -5.0679100        0.1433670        0.8806610
 H       -3.9785660        0.2752500        2.2716350
 C        1.9013010        4.9899120       -1.0050260
 C        3.1529480        5.1633780       -0.0885890
 C        2.2538670        4.1554720       -2.2681110
 C        1.5747660        6.4277820       -1.5151200
 H        3.9322910        5.7163840       -0.6336870
 H        3.5876140        4.2183910        0.2361300
 H        2.9071360        5.7467590        0.8126250
 H        3.2085760        4.5085460       -2.6854190
 H        1.4983590        4.2794260       -3.0547350
 H        2.3513350        3.0897690       -2.0653670
 H        1.4230110        7.1444150       -0.6990690
 H        0.7044140        6.4595680       -2.1802480
 H        2.4356560        6.7811880       -2.1017770
 C       -5.8095670        1.2151890       -3.8144730
 C       -7.0532300        0.6918730       -3.0962870
 O       -5.8131300        1.3528750       -5.0696970
 H       -7.4308450        1.4241920       -2.3656030
 H       -7.8352260        0.4943220       -3.8378100
 H       -6.8357650       -0.2387320       -2.5491940
 C       -1.8646220        5.3335610       -0.2763830
 C       -2.3642760        5.0274860        1.1604600
 C       -1.3493700        6.8064440       -0.2390720
 C       -3.0859430        5.3514740       -1.2524870
 H       -1.6291030        5.3254800        1.9161490
 H       -2.6036500        3.9766620        1.3120340
 H       -3.2771720        5.6098750        1.3553990
 H       -2.1481510        7.4357890        0.1801560
 H       -1.1169790        7.1998460       -1.2354320
 H       -0.4712990        6.9334780        0.4041830
 H       -3.6941990        4.4458560       -1.1986670
 H       -2.7707190        5.4895720       -2.2972820
 H       -3.7384880        6.1991570       -0.9955360
 C        0.0503510        3.3117400        3.0373240
 H       -0.2472280        2.9080830        4.0137600
 H       -0.7077370        3.0159640        2.3136380
 H        0.0397520        4.4088470        3.1270170
 C        3.6773760        1.4691240       -0.2518960
 C        4.4041700        0.1003930       -0.2960990
 H        4.3891880        2.2409060       -0.5924760
 H        2.8828350        1.4435700       -0.9967830
 H        5.3584360        0.1048370        0.2505360
 H        4.6255100       -0.1541350       -1.3424940
 H        3.7783700       -0.7033900        0.1167260
 C        4.5014490        1.8204820        4.7343950
 C        5.8401220        1.1062320        4.5500300
 O        4.1553250        2.2348150        5.8764310
 H        6.4917380        1.6537170        3.8509470
 H        6.3427130        1.0350950        5.5210610
 H        5.6966120        0.0932110        4.1433960
