83
M00000478_2D_DFT last geometry from G09 out file
 Ru        0.2984400        0.1724800       -0.3155470
 C       -1.2912730       -0.6426280       -0.6258080
 Cl        0.5753750       -0.5005750        1.9897120
 Cl        1.1727870        0.1573790       -2.5770910
 H       -2.2977650       -0.2241740       -0.6354690
 H       -1.2095840       -1.7380300       -0.7965120
 C       -0.0149270        2.1072820       -0.2555460
 N        1.0204090        2.9516690        0.1615970
 N       -1.0621110        2.8910450       -0.7260090
 C        0.7451000        4.4217640       -0.1698100
 C        2.0261600        2.5463920        1.1671040
 C       -0.7353600        4.3909090       -0.7404550
 H        0.7615200        4.9796180        0.7748260
 H       -0.6912980        4.6891300       -1.7951630
 C        1.7550530        2.8468720        2.5419360
 C        3.2275150        1.8217760        0.8630350
 C        2.7100160        2.5330130        3.5342970
 C        3.9105050        1.8564030        3.2501510
 H        2.4764550        2.7864660        4.5700150
 C        4.1203710        1.4808750        1.9123520
 H        5.0201450        0.9178620        1.6672870
 C       -2.2474000        2.3580550       -1.3902480
 C       -2.3022950        2.3536750       -2.8184820
 C       -3.3990900        1.8986060       -0.6529690
 C       -3.4754890        1.9007820       -3.4691060
 C       -4.6176350        1.4596310       -2.7722480
 H       -3.4837820        1.8904720       -4.5607620
 C       -4.5524790        1.4770590       -1.3662820
 H       -5.4184030        1.1296340       -0.8074760
 C       -1.1576600        2.8082250       -3.7041810
 H       -1.1972190        3.8944390       -3.8856880
 H       -1.2210800        2.3176460       -4.6840790
 H       -0.1845760        2.5596660       -3.2803200
 C       -3.4723930        1.7848390        0.8550930
 C       -4.8480280        1.7892160        1.5385450
 O       -2.4440510        1.6710660        1.5711350
 H       -4.6916540        1.9800380        2.6066560
 H       -5.5294250        2.5445310        1.1233180
 H       -5.3348270        0.8047970        1.4466510
 C        1.8559280        5.1008820       -1.1117170
 C        3.2027960        5.1921090       -0.3286390
 C        2.0414910        4.3486730       -2.4588720
 C        1.5036010        6.5750720       -1.4810500
 H        3.6787940        4.2220030       -0.2014060
 H        3.0605430        5.6570960        0.6602790
 H        3.9068480        5.8235570       -0.8909410
 H        1.2271980        4.5832420       -3.1585520
 H        2.1066950        3.2684390       -2.3353980
 H        2.9787000        4.6723040       -2.9328640
 H        2.3084900        6.9582960       -2.1255720
 H        1.4479610        7.2342920       -0.6049130
 H        0.5726200        6.6635170       -2.0518820
 C       -5.8491780        0.9604130       -3.5076830
 H       -6.1085980        1.6173910       -4.3513080
 H       -6.7232810        0.9005460       -2.8448700
 H       -5.6793750       -0.0468180       -3.9229770
 C       -1.8421820        5.3722400       -0.0913610
 C       -2.2335100        5.0463440        1.3759240
 C       -1.3554910        6.8550890       -0.0746560
 C       -3.1260200        5.3839150       -0.9855700
 H       -1.4736820        5.4041070        2.0807620
 H       -2.3782170        3.9839010        1.5555080
 H       -3.1697280        5.5686700        1.6255580
 H       -2.1302520        7.4600710        0.4196350
 H       -1.2137640        7.2684210       -1.0801380
 H       -0.4302210        6.9911700        0.4951070
 H       -3.7197270        4.4708700       -0.9063780
 H       -2.8784660        5.5383030       -2.0468240
 H       -3.7710600        6.2204690       -0.6775900
 C        0.4448090        3.4354250        3.0268670
 H       -0.4077940        3.0126970        2.4926010
 H        0.4191160        4.5302380        2.9246160
 H        0.3067190        3.2106680        4.0922190
 C        3.7823940        1.3934510       -0.4950710
 C        4.2501270       -0.0587550       -0.6464010
 O        3.9736530        2.2110570       -1.4271270
 H        5.3403300       -0.1117350       -0.4889870
 H        3.7599590       -0.7426730        0.0553810
 H        4.0503580       -0.3759870       -1.6757240
 C        4.8946760        1.4860850        4.3454790
 H        4.5636620        0.5776930        4.8763000
 H        4.9854550        2.2859410        5.0951840
 H        5.8964810        1.2844040        3.9414910
