97
M00000475_2D_DFT last geometry from G09 out file
 Ru        0.2954940        0.0531370       -0.3987260
 C       -1.2564560       -0.7596250       -0.8683630
 Cl        0.3220130       -0.4691580        1.9578840
 Cl        1.2816810       -0.0790420       -2.6211770
 H       -2.2087240       -0.3331550       -1.1847890
 H       -1.1842840       -1.8695380       -0.8758490
 C       -0.0033370        1.9903270       -0.3528220
 N        1.0330530        2.8418860        0.0594910
 N       -1.0523510        2.7701320       -0.8150470
 C        0.7770350        4.2987720       -0.3405860
 C        2.0241950        2.4779780        1.0830680
 C       -0.7060070        4.2655680       -0.9022820
 H        0.8087990        4.8979230        0.5784910
 H       -0.6632990        4.4958620       -1.9733800
 C        1.7741550        2.7854570        2.4483960
 C        3.2864140        1.8402500        0.8135850
 C        2.6766890        2.5454680        3.4940600
 C        3.9238590        1.9452430        3.2311620
 H        2.3765790        2.8104970        4.5021290
 C        4.1789220        1.6043370        1.8854450
 H        5.1221910        1.1247980        1.6413720
 C       -2.2807870        2.2286500       -1.3645160
 C       -2.5211190        2.2109820       -2.7623470
 C       -3.3366790        1.7293850       -0.5236870
 C       -3.7277420        1.7785640       -3.3376480
 C       -4.7872670        1.3298240       -2.5210490
 H       -3.8173060        1.7997460       -4.4185740
 C       -4.5475170        1.3157560       -1.1261670
 H       -5.3343640        0.9638210       -0.4636370
 Cl       -1.2571900        2.7556060       -3.9549080
 C       -3.2304020        1.6404850        1.0037270
 C       -3.7120120        0.3162500        1.6499110
 H       -3.8362400        2.4563470        1.4335260
 H       -2.1995940        1.8105110        1.3215470
 H       -4.7795420        0.1181960        1.4754580
 H       -3.5625930        0.3771410        2.7383400
 H       -3.1334660       -0.5434440        1.2906090
 C        1.8995570        4.8946240       -1.3272980
 C        3.2198770        5.1078000       -0.5219020
 C        2.1408080        3.9969770       -2.5726860
 C        1.5355780        6.3074150       -1.8805710
 H        3.0493400        5.7611040        0.3485460
 H        3.9655430        5.6023190       -1.1622510
 H        3.6624120        4.1806510       -0.1581420
 H        1.3078850        4.0666360       -3.2829330
 H        2.2668960        2.9442290       -2.3263520
 H        3.0463720        4.3349490       -3.0989050
 H        1.4430420        7.0633740       -1.0914860
 H        0.6191450        6.3071270       -2.4813310
 H        2.3511100        6.6290010       -2.5455290
 C       -6.1496780        0.8587080       -3.0992920
 C       -7.2947310        1.7466560       -2.5132850
 C       -6.2065310        0.9607270       -4.6494880
 C       -6.3923730       -0.6339810       -2.7035320
 H       -7.3457000        1.6849540       -1.4174790
 H       -8.2677130        1.4207400       -2.9112090
 H       -7.1517530        2.8032030       -2.7853110
 H       -5.4484590        0.3264880       -5.1322250
 H       -6.0689040        1.9945150       -4.9996070
 H       -7.1908200        0.6221540       -5.0037920
 H       -6.4183860       -0.7734260       -1.6140240
 H       -5.6001250       -1.2817710       -3.1076670
 H       -7.3553690       -0.9812640       -3.1076160
 C       -1.7911170        5.2985640       -0.3054790
 C       -2.1753510        5.0764950        1.1810650
 C       -1.2692920        6.7670590       -0.3910830
 C       -3.0877450        5.2736800       -1.1804080
 H       -1.3852220        5.4230710        1.8560220
 H       -2.3786400        4.0338220        1.4147400
 H       -3.0801530        5.6600920        1.4103400
 H       -2.0288690        7.4239150        0.0581530
 H       -1.1166980        7.1044340       -1.4229100
 H       -0.3417820        6.9187760        0.1723220
 H       -3.7008490        4.3843930       -1.0139010
 H       -2.8571330        5.3366380       -2.2539070
 H       -3.7068150        6.1473100       -0.9268760
 Cl        0.1841420        3.4836060        2.9904340
 C        3.7561350        1.4269100       -0.5835920
 C        4.5449360        0.0967170       -0.6735350
 H        4.3951190        2.2285450       -0.9915120
 H        2.9048920        1.3488910       -1.2593160
 H        5.5458740        0.1595400       -0.2218410
 H        4.6786510       -0.1659750       -1.7328750
 H        4.0019380       -0.7290760       -0.1925410
 C        4.9624930        1.6400390        4.3436010
 C        5.2151150        0.0984390        4.4000630
 C        6.3016350        2.3788490        4.0225200
 C        4.4823290        2.1015090        5.7484040
 H        5.9394590       -0.1382850        5.1944450
 H        5.6182800       -0.2874920        3.4537540
 H        4.2822550       -0.4442980        4.6119730
 H        6.7237360        2.0663410        3.0574620
 H        7.0500220        2.1617310        4.7999080
 H        6.1518980        3.4685530        3.9879160
 H        5.2563150        1.8718190        6.4950190
 H        3.5630660        1.5832610        6.0585350
 H        4.2999550        3.1859800        5.7859230
