54
M00000366_2D_DFT last geometry from G09 out file
 Ru        0.1439380       -0.0596620       -0.2927160
 C        0.5017690       -0.3336480        1.4728970
 Cl        2.3051230       -0.0218870       -1.3516740
 Cl       -2.0392560       -1.0744440       -0.3528640
 H        0.2886030        0.3769980        2.2813060
 H        0.8789070       -1.3294050        1.7769960
 C       -0.1278840        1.8456330       -0.2059300
 N        0.5818360        2.8112180        0.5129720
 N       -1.0139260        2.5541550       -1.0269610
 C        0.1063390        4.1964100        0.2248180
 C        1.6387410        2.6522370        1.4691550
 C       -0.6640550        4.0504480       -1.1136110
 H        0.9670830        4.8679410        0.1412030
 H       -0.5534710        4.5583060        1.0270750
 C        0.2445500        4.2932910       -2.3606600
 C       -1.9029710        4.9795860       -1.1773750
 C        0.6328750        5.7817340       -2.5464700
 H        1.1436880        3.6637710       -2.2934660
 H       -0.3034400        3.9660170       -3.2559850
 C       -0.6100710        6.6998180       -2.5720020
 H        1.3149160        6.1077060       -1.7427610
 H        1.2000240        5.8815270       -3.4856640
 C       -1.5001490        6.4697130       -1.3294780
 H       -1.1971060        6.4963400       -3.4842290
 H       -0.3009350        7.7560890       -2.6240940
 H       -2.4181850        7.0748180       -1.4015620
 H       -0.9729490        6.8168280       -0.4245830
 H       -2.5252750        4.8508810       -0.2797820
 H       -2.5221530        4.7005660       -2.0432230
 C        1.4795920        3.0196100        2.8399350
 C        2.9362690        2.2822330        1.0426560
 C        2.5636220        3.0291420        3.7417540
 C        3.8155460        2.6239480        3.2672140
 H        2.4238730        3.3318780        4.7765510
 C        4.0245190        2.2391180        1.9331580
 H        5.0124400        1.9297460        1.5958380
 C       -2.2592300        2.0426570       -1.5365350
 C       -2.4468990        1.5828940       -2.8669030
 C       -3.4035070        2.0969950       -0.7045210
 C       -3.7149350        1.2371790       -3.3717410
 C       -4.8075880        1.3178880       -2.5015330
 H       -3.8350890        0.8965620       -4.3974290
 C       -4.6789580        1.7299890       -1.1660510
 H       -5.5476550        1.7517720       -0.5104340
 H       -3.2777590        2.4175500        0.3280050
 F       -6.0721430        0.9630050       -2.9840340
 N        0.1578500        3.3827710        3.4230250
 O       -0.8907450        2.7686290        2.9979980
 O        0.1396960        4.2762280        4.3490100
 H        3.0796390        2.0047330        0.0025360
 F        4.8946540        2.6108030        4.1584040
 N       -1.3031110        1.3771200       -3.7878560
 O       -0.2577560        0.7965040       -3.3193370
 O       -1.4361920        1.7653620       -5.0072420
