79
M00000365_2D_DFT last geometry from G09 out file
 Ru        0.1851470       -0.2872920       -0.0411810
 C       -1.4567910       -0.9873220       -0.3781000
 Cl        0.2683310       -0.6160460        2.3369120
 Cl        1.1618200       -0.5425560       -2.2290770
 H       -2.3975560       -0.4768880       -0.5898630
 H       -1.4817620       -2.0977910       -0.3778650
 C       -0.0436050        1.6147250       -0.1658590
 N        1.0595750        2.4693010        0.0441990
 N       -1.1277070        2.4162690       -0.5406700
 C        0.7667620        3.8619080       -0.3649590
 C        2.1368540        2.2445590        1.0215320
 C       -0.7672430        3.8566690       -0.6073680
 H        1.0653210        4.5609930        0.4252130
 H       -1.0351230        4.2652680       -1.5894010
 C        1.8211780        2.5355570        2.3691590
 C        3.4569080        1.8446000        0.6674160
 C        2.7869570        2.4386520        3.3819030
 C        4.1142510        2.0486140        3.0783960
 H        2.4862180        2.6572020        4.4031670
 C        4.4018660        1.7638880        1.7219600
 H        5.4127750        1.4642500        1.4540190
 C       -2.3511050        1.9896990       -1.2163290
 C       -2.3080550        1.8947650       -2.6244830
 C       -3.5599970        1.7203440       -0.5129070
 C       -3.4538580        1.5492580       -3.3615790
 C       -4.6830190        1.2830860       -2.7084860
 H       -3.3691320        1.4809510       -4.4429730
 C       -4.6899520        1.3713470       -1.2934140
 H       -5.6125430        1.1523620       -0.7592250
 H       -1.3648030        2.0676820       -3.1436030
 C       -3.6562840        1.6978260        1.0142760
 C       -4.8499980        2.4716920        1.6282940
 H       -2.7246730        2.0690450        1.4535820
 H       -3.7300450        0.6441640        1.3365600
 H       -4.7965470        2.4190100        2.7264920
 H       -5.8200790        2.0490250        1.3289930
 H       -4.8376760        3.5306850        1.3383640
 C        1.5273890        4.3337020       -1.6365610
 F        2.8990060        4.5123530       -1.4008570
 F        1.3891910        3.4600860       -2.7311240
 F        1.0304810        5.5947690       -2.0608480
 C       -5.9791120        0.8958140       -3.4740730
 C       -7.0971930        1.9440240       -3.1664690
 C       -5.7709900        0.8547820       -5.0144100
 C       -6.4518340       -0.5215640       -3.0141730
 H       -7.3363310        1.9915490       -2.0951610
 H       -8.0212840        1.6810250       -3.7033270
 H       -6.7912360        2.9509940       -3.4874100
 H       -5.0195790        0.1074660       -5.3091340
 H       -5.4637750        1.8324340       -5.4143700
 H       -6.7159880        0.5812020       -5.5056430
 H       -5.6832680       -1.2800930       -3.2257420
 H       -7.3693260       -0.8077740       -3.5504380
 H       -6.6716220       -0.5553350       -1.9381100
 C       -1.5024010        4.7635500        0.4177690
 F       -2.8704890        4.8971500        0.1291750
 F       -1.3932420        4.3136630        1.7511310
 F       -0.9606530        6.0715110        0.3900310
 H        0.8013070        2.8156380        2.6301420
 C        3.9103130        1.5419350       -0.7610560
 C        4.7080030        0.2244470       -0.9351240
 H        4.5417010        2.3777420       -1.1072160
 H        3.0457210        1.5078430       -1.4299990
 H        4.9313880        0.0707890       -2.0015080
 H        4.1293480       -0.6427690       -0.5891280
 H        5.6660330        0.2370350       -0.3952130
 C        5.2236430        1.9157050        4.1584940
 C        6.4143710        2.8657120        3.8087620
 C        4.7167860        2.2868120        5.5809060
 C        5.7288260        0.4367330        4.1974960
 H        6.8600150        2.6284680        2.8329350
 H        7.2067410        2.7756970        4.5675170
 H        6.0854650        3.9155400        3.7820270
 H        4.3636110        3.3275220        5.6335750
 H        5.5390620        2.1811530        6.3035550
 H        3.9017890        1.6263650        5.9115190
 H        4.9056540       -0.2522570        4.4379710
 H        6.5086930        0.3215140        4.9658800
 H        6.1576790        0.1227680        3.2359140
