97
M00000368_2D_DFT last geometry from G09 out file
 Ru       -0.0053940        0.1047160       -0.3694730
 C       -1.5553670       -0.6439730       -0.9390550
 Cl       -0.1737990       -0.3951080        1.9879460
 Cl        1.0864160       -0.0058060       -2.5526120
 H       -2.4621180       -0.1736520       -1.3214430
 H       -1.5335360       -1.7564650       -0.9395120
 C       -0.2293850        2.0504440       -0.3571210
 N        0.8197650        2.8549880        0.1076130
 N       -1.2245540        2.8609180       -0.8828220
 C        0.6379010        4.3171540       -0.3075780
 C        1.7411360        2.4848670        1.2141120
 C       -0.8164520        4.3400790       -0.9413040
 H        0.6525480        4.9195850        0.6104990
 H       -0.7135980        4.5835590       -2.0054270
 C        1.3455540        2.8209990        2.5510260
 C        3.0207550        1.8658380        1.0096150
 C        2.2463160        2.6326310        3.6206810
 C        3.5389440        2.1084070        3.4334590
 H        1.9119680        2.8884800        4.6284000
 C        3.8813440        1.7188660        2.1269280
 H        4.8663930        1.2839970        1.9584760
 C       -2.4307730        2.3723760       -1.5570240
 C       -2.4768280        2.3588040       -2.9871320
 C       -3.5786400        1.9510290       -0.8032610
 C       -3.6826400        1.9999180       -3.6328790
 C       -4.8493840        1.6568420       -2.9197660
 H       -3.7006680        1.9870290       -4.7243840
 C       -4.7606490        1.6254250       -1.5128960
 H       -5.6422500        1.3323930       -0.9431160
 C       -1.2860120        2.6947690       -3.8685550
 H       -0.3446520        2.3475440       -3.4379870
 H       -1.2093770        3.7781580       -4.0576480
 H       -1.3951330        2.2097350       -4.8476290
 C       -3.6219590        1.8409190        0.7251710
 C       -4.2208600        0.5294750        1.3106110
 H       -4.2318110        2.6745460        1.1152990
 H       -2.6175600        1.9553440        1.1402080
 C       -4.2541870        0.5508650        2.8552980
 H       -3.6211710       -0.3303280        0.9801780
 H       -5.2441600        0.3694580        0.9360690
 H       -3.2398990        0.6409670        3.2705170
 H       -4.8599010        1.3904350        3.2349680
 H       -4.6910170       -0.3807900        3.2475060
 C        1.8262910        4.8787830       -1.2391130
 C        3.1207210        5.0338770       -0.3813720
 C        2.0913260        3.9816360       -2.4806500
 C        1.5402310        6.3084770       -1.7946340
 H        3.8971810        5.5374770       -0.9766840
 H        3.5295650        4.0833460       -0.0422510
 H        2.9340470        5.6554270        0.5086170
 H        3.0591060        4.2506660       -2.9295580
 H        1.3275660        4.1334330       -3.2545810
 H        2.1160410        2.9187440       -2.2430570
 H        1.4525920        7.0626770       -1.0031590
 H        0.6452060        6.3521170       -2.4256360
 H        2.3907010        6.5998530       -2.4290760
 C       -6.1540130        1.3375160       -3.6398210
 C       -7.0411030        2.5892710       -3.8857360
 H       -6.7323630        0.6042850       -3.0551360
 H       -5.9354710        0.8641150       -4.6104990
 H       -7.9693390        2.3081670       -4.4075780
 H       -6.5157650        3.3337730       -4.5027150
 H       -7.3173230        3.0736180       -2.9369580
 C       -1.8875370        5.4137130       -0.3887570
 C       -2.3599470        5.1842970        1.0709960
 C       -1.3034560        6.8609730       -0.4174750
 C       -3.1345780        5.4558610       -1.3310100
 H       -3.2230840        5.8356390        1.2756280
 H       -1.5803090        5.4500080        1.7936340
 H       -2.6682300        4.1581910        1.2602900
 H       -2.0585250        7.5413430        0.0035770
 H       -1.0843710        7.2098160       -1.4331370
 H       -0.4001400        6.9663210        0.1942020
 H       -2.8414890        5.5502630       -2.3872940
 H       -3.7443280        6.3374990       -1.0817690
 H       -3.7753290        4.5766150       -1.2355760
 C       -0.0282960        3.3444500        2.9223560
 H       -0.7810420        3.1047310        2.1745510
 H       -0.0188400        4.4355380        3.0713530
 H       -0.3509090        2.8930700        3.8703570
 C        3.5886560        1.3727440       -0.3252030
 C        4.1136670       -0.0940480       -0.3217100
 H        4.4350900        2.0248760       -0.6050850
 H        2.8516360        1.4575260       -1.1232600
 C        4.8701520       -0.4490590       -1.6208860
 H        3.2657750       -0.7834460       -0.1923760
 H        4.7838470       -0.2639810        0.5343880
 H        5.7569660        0.1927420       -1.7553690
 H        5.2151860       -1.4948680       -1.5961880
 H        4.2247060       -0.3307280       -2.5020600
 C        4.5184030        1.9667190        4.5916870
 C        5.3765200        3.2395660        4.8310920
 H        5.1923420        1.1153940        4.4057570
 H        3.9662640        1.7338960        5.5165350
 H        5.9753330        3.4879390        3.9417190
 H        6.0673700        3.0873160        5.6754100
 H        4.7426960        4.1089870        5.0626670
