87
Mol_000096_2D_DFT last geometry from G09 out file
 Ru        0.3343250        0.1621430       -0.0206320
 C       -0.9656360       -0.6721380       -0.9773870
 Cl       -0.3250360       -0.5164150        2.1874100
 Cl        2.1476450        0.1230600       -1.6057980
 H       -1.8551680       -0.2481190       -1.4468860
 H       -0.8290590       -1.7694620       -1.0834060
 C       -0.1996690        2.0455040        0.0296900
 N        0.6290120        2.9789680        0.6574290
 N       -1.3511430        2.7255160       -0.3729690
 C       -0.0535550        4.2814970        0.8757460
 C        2.0179090        2.8008840        1.0387580
 C       -1.3175380        4.2219330       -0.0234550
 H        0.6120530        5.1072380        0.6048700
 H       -0.3285030        4.3859500        1.9335190
 C       -2.5725970        4.7915470        0.7040850
 C       -1.2277290        5.1792840       -1.2523740
 C       -2.4177830        6.3333490        0.5942660
 H       -2.6547270        4.4509640        1.7405800
 H       -3.4802260        4.4753270        0.1734460
 C       -1.5380950        6.5856780       -0.6766400
 H       -3.3999880        6.8224470        0.5225590
 H       -1.9267900        6.7408840        1.4908480
 H       -0.6115720        7.1153090       -0.4096260
 H       -2.0544880        7.2103580       -1.4199320
 H       -2.0091540        4.9009670       -1.9668250
 H       -0.2615300        5.1309350       -1.7637410
 C        3.0670570        3.0523440        0.0943170
 C        2.3951800        2.4653700        2.3803620
 C        4.4127790        2.8152920        0.4144560
 C        4.7888910        2.3328010        1.7000670
 H        5.1647960        3.0046780       -0.3415160
 C        3.7545410        2.2317130        2.6718470
 H        4.0103260        1.9596100        3.6895820
 C       -2.5018140        2.1420780       -1.0327150
 C       -2.5818640        2.0660790       -2.4679570
 C       -3.6183530        1.6436640       -0.2855360
 C       -3.7430300        1.5414390       -3.0717320
 C       -4.8673880        1.0701940       -2.3383710
 H       -3.7619420        1.4925460       -4.1554820
 C       -4.7638710        1.1261740       -0.9220270
 H       -5.5718640        0.7563410       -0.3003560
 C        2.8389000        3.7504410       -1.2300170
 F        2.6776070        5.1757810       -1.0200770
 F        1.7078400        3.3784300       -1.9743690
 F        3.9287420        3.6457100       -2.1213970
 C        1.3875870        2.4596120        3.5465180
 C        1.4125340        3.8435500        4.2705450
 C        1.6153790        1.3361550        4.5930450
 H        0.3848340        2.3058220        3.1296050
 H        1.2602950        4.6846230        3.5803830
 H        2.3773420        4.0028350        4.7756150
 H        0.6212600        3.8806450        5.0353450
 H        0.7626590        1.3105920        5.2878110
 H        2.5204840        1.5067300        5.1961150
 H        1.6833880        0.3511700        4.1181690
 N        6.1155670        2.0162650        1.9948140
 C        6.4840250        1.5407720        3.3363970
 C        7.1585700        2.1445360        0.9647170
 H        5.9236830        0.6317230        3.6134230
 H        6.3032120        2.3059990        4.1120410
 H        7.5512560        1.2932880        3.3554690
 H        7.2984060        3.1917890        0.6434430
 H        6.9243590        1.5388600        0.0733850
 H        8.1141290        1.7898530        1.3669330
 C       -1.4362920        2.4851080       -3.4143620
 C       -1.8877690        3.5314690       -4.4763830
 C       -0.7974530        1.2663030       -4.1431860
 H       -0.6456700        2.9381330       -2.8115450
 H       -2.5408200        3.0823380       -5.2398870
 H       -1.0040360        3.9297810       -4.9975810
 H       -2.4296910        4.3783890       -4.0340680
 H       -0.3612850        0.5516170       -3.4384240
 H        0.0163750        1.6167060       -4.7957880
 H       -1.5307520        0.7398520       -4.7731210
 C       -3.7382200        1.5852170        1.2287930
 F       -4.8241010        2.4145670        1.6887880
 F       -2.6331780        1.9757440        1.9868910
 F       -4.0782510        0.2806920        1.6751180
 N       -6.0083540        0.5687950       -2.9676010
 C       -7.1346320        0.0596890       -2.1688390
 C       -6.0749360        0.4935020       -4.4346380
 H       -7.9331780       -0.2787900       -2.8383160
 H       -7.5566720        0.8406050       -1.5136790
 H       -6.8398880       -0.7966220       -1.5375560
 H       -5.2983230       -0.1719110       -4.8512850
 H       -5.9623320        1.4871310       -4.9010390
 H       -7.0505030        0.0954750       -4.7351880
