65
Mol_000095_2D_DFT last geometry from G09 out file
 Ru        0.2339870        0.0823910        0.0139220
 C       -1.0859680       -0.6588890       -0.9874790
 Cl       -0.6631430       -0.2208370        2.2353400
 Cl        2.0029920       -0.0950710       -1.6288180
 H       -1.8654470       -0.1775250       -1.5811490
 H       -1.0630550       -1.7701840       -1.0109460
 C       -0.1247890        1.9955830        0.0149810
 N        0.7269070        2.8687460        0.6914070
 N       -1.1883070        2.7542790       -0.4673910
 C        0.3067120        4.2833030        0.5147860
 C        2.0866520        2.6309630        1.1603170
 C       -1.1777690        4.1722910        0.0944980
 H        0.9225180        4.7574130       -0.2689430
 H        0.4399840        4.8441590        1.4440650
 C       -2.1522990        4.3807260        1.2995230
 C       -1.6208340        5.3009580       -0.8721300
 C       -2.2634620        5.9233930        1.4524150
 H       -1.8053380        3.8750140        2.2100020
 H       -3.1338980        3.9640730        1.0418380
 C       -1.8817490        6.5204300        0.0534750
 H       -3.2793290        6.2133840        1.7568430
 H       -1.5829970        6.2976960        2.2314810
 H       -0.9798070        7.1456980        0.1351780
 H       -2.6766450        7.1626680       -0.3519830
 H       -2.5540240        5.0036510       -1.3686950
 H       -0.8765490        5.5092640       -1.6512200
 C        3.1031830        2.5396180        0.1771250
 C        2.4148250        2.6349020        2.5511910
 C        4.4546710        2.4170510        0.5435350
 C        4.7979300        2.4074100        1.9107140
 H        5.2209470        2.3254730       -0.2269330
 C        3.7893470        2.5172190        2.8860860
 H        4.0767950        2.5081620        3.9371980
 C       -2.3580930        2.2524490       -1.1626820
 C       -2.4695270        2.3237200       -2.5863390
 C       -3.4122380        1.7099600       -0.3833460
 C       -3.6808550        1.8555330       -3.1629060
 C       -4.7348790        1.3372220       -2.3873090
 H       -3.7975550        1.8902830       -4.2460010
 C       -4.5983590        1.2539180       -0.9853590
 H       -5.3944710        0.8307030       -0.3714420
 H        2.8238730        2.5400050       -0.8736230
 C        1.3726870        2.7903860        3.6698370
 C        1.4625590        4.1959430        4.3372350
 C        1.4817000        1.6773400        4.7485450
 H        0.3789880        2.6902980        3.2150110
 H        1.3816670        5.0117020        3.6031650
 H        2.4181590        4.3252010        4.8672040
 H        0.6526420        4.3189800        5.0731880
 H        0.6510100        1.7704780        5.4651540
 H        2.4198810        1.7451140        5.3191200
 H        1.4193720        0.6817370        4.2930940
 H        5.8416930        2.3142350        2.2161340
 C       -1.3383130        2.8218510       -3.5019780
 C       -1.7909020        3.9667330       -4.4520810
 C       -0.7124970        1.6552080       -4.3219470
 H       -0.5402020        3.2188930       -2.8607400
 H       -2.2401470        4.8053170       -3.9020400
 H       -2.5266990        3.6192960       -5.1920500
 H       -0.9239480        4.3521560       -5.0104450
 H       -0.2988970        0.8785450       -3.6679560
 H        0.1120890        2.0359000       -4.9442340
 H       -1.4512590        1.1907920       -4.9927500
 H       -3.2720900        1.6093570        0.6912600
 H       -5.6477300        0.9887330       -2.8735540
