79
M00000353_2D_DFT last geometry from G09 out file
 Ru        0.2809030       -0.2714920       -0.3009710
 C        2.0952100       -0.3295970       -0.3842550
 Cl       -0.2355880       -0.5771090       -2.6395540
 Cl       -0.0644820       -1.2204370        1.8806880
 H        2.7996080        0.5028230       -0.3137650
 H        2.5326480       -1.3411350       -0.5194500
 C       -0.0630870        1.6368870       -0.0398800
 N        0.7979420        2.6831060        0.3098210
 N       -1.3313820        2.2069670       -0.2383890
 C        0.1501920        4.0218710        0.1143810
 C        2.1795620        2.6467970        0.7497780
 C       -1.3438480        3.6783570        0.0282560
 H        0.5249270        4.4884060       -0.8048070
 H        0.3870490        4.6844750        0.9560840
 H       -1.8532420        4.1988060       -0.7900970
 C        2.5346560        2.2146160        2.0882320
 C        3.2099990        3.1073680       -0.1317510
 C        3.9272790        2.1340170        2.4099910
 C        4.9426400        2.5272820        1.5260020
 H        4.2083130        1.8009690        3.4064490
 C        4.5656460        3.0497720        0.2678150
 H        5.3302940        3.3906750       -0.4297140
 C       -2.5345460        1.5647100       -0.7419920
 C       -2.9675950        1.8083320       -2.1005140
 C       -3.3704230        0.7825570        0.1175520
 C       -4.0802020        1.0737140       -2.5905800
 C       -4.7983290        0.1571610       -1.8003840
 H       -4.3645100        1.1967150       -3.6338320
 C       -4.4566490        0.0575230       -0.4377940
 H       -5.0714320       -0.5453330        0.2294240
 N       -2.4141740        2.8377860       -2.9236470
 C       -1.0036060        2.8245250       -3.3619010
 C       -3.2952350        3.4644460       -3.9264100
 H       -0.6468280        3.8568530       -3.4992970
 H       -0.8868240        2.2877030       -4.3224350
 H       -0.3724430        2.3194490       -2.6382550
 H       -3.3845330        2.8852070       -4.8685550
 H       -2.8765820        4.4490520       -4.1876300
 H       -4.3009630        3.6186310       -3.5150080
 C       -3.3517840        0.8258850        1.6246390
 C       -3.6232560        2.0483530        2.2967560
 C       -3.3012290       -0.3584430        2.4014450
 C       -3.8058410        2.0894630        3.6946550
 H       -3.7514920        2.9627340        1.7180450
 C       -3.7304910        0.9030440        4.4556480
 H       -4.0288330        3.0407550        4.1825650
 C       -3.4792010       -0.3207010        3.7990740
 H       -3.8763730        0.9303270        5.5371880
 H       -3.4167000       -1.2472540        4.3722770
 H       -3.0937840       -1.3092160        1.9144030
 H       -1.8700110        3.8816030        0.9704820
 C       -5.9155170       -0.6830150       -2.3952830
 H       -6.6554430       -0.9707880       -1.6349610
 H       -5.5118200       -1.6141750       -2.8276590
 H       -6.4427760       -0.1517730       -3.2012370
 N        1.6141910        1.8546450        3.0799740
 C        1.9803520        0.8960300        4.1343080
 C        0.3326100        2.5386470        3.3074640
 H        2.4401150        1.3821260        5.0179590
 H        2.6675890        0.1351000        3.7462990
 H        1.0736440        0.3703800        4.4604380
 H       -0.5269420        1.9370730        2.9857560
 H        0.3125340        3.5080150        2.8028930
 H        0.2216510        2.7388090        4.3867750
 C        2.9840740        3.6487880       -1.5234110
 C        3.2367650        5.0235020       -1.7794150
 C        2.6727640        2.8096340       -2.6228290
 C        3.1757580        5.5450130       -3.0887600
 H        3.4913730        5.6824680       -0.9473740
 C        2.8729810        4.6957170       -4.1755850
 H        3.3749390        6.6048830       -3.2594040
 C        2.6229760        3.3279480       -3.9347670
 H        2.8388020        5.0919170       -5.1921340
 H        2.3931490        2.6579450       -4.7651590
 H        2.4826190        1.7501080       -2.4654740
 C        6.4084930        2.4172310        1.9138160
 H        6.8881700        1.5657200        1.4025010
 H        6.5340960        2.2651910        2.9947240
 H        6.9694840        3.3207560        1.6304600
