109
M00000355_2D_DFT last geometry from G09 out file
 Ru       -0.3680510        0.3525610       -0.3649490
 C       -1.9892360       -0.2592570       -0.8996980
 Cl       -0.5685060       -0.0542590        2.0087360
 Cl        0.6771810        0.0463950       -2.5535420
 H       -2.8457940        0.2840540       -1.3009050
 H       -2.0800800       -1.3673640       -0.8545260
 C       -0.3995010        2.3114920       -0.4298440
 N        0.7247830        3.0283730        0.0011050
 N       -1.3120870        3.1911540       -0.9922200
 C        0.6848350        4.4841260       -0.4740090
 C        1.6172630        2.5932380        1.1099670
 C       -0.7599100        4.6194050       -1.1194990
 H        0.7561490        5.1189570        0.4193470
 H       -0.6282490        4.7985870       -2.1931470
 C        1.2795970        2.9891190        2.4488720
 C        2.8167200        1.8287640        0.8967580
 C        2.1551820        2.6736510        3.5105460
 C        3.3697880        1.9924860        3.3168370
 H        1.8628760        2.9501350        4.5242520
 C        3.6612260        1.5777490        2.0064540
 H        4.5875460        1.0317830        1.8309720
 C       -2.5762300        2.7982400       -1.6222010
 C       -2.6623950        2.7337890       -3.0527860
 C       -3.7378670        2.5299330       -0.8214350
 C       -3.9232120        2.4985870       -3.6465150
 C       -5.0977010        2.3147930       -2.8880910
 H       -3.9913320        2.4529210       -4.7321740
 C       -4.9706480        2.3149050       -1.4850460
 H       -5.8607120        2.1420540       -0.8799400
 C       -1.4395970        2.9187010       -3.9543630
 C       -1.4375260        2.1206660       -5.2796600
 H       -0.5441610        2.6321140       -3.3979480
 H       -1.3354610        3.9908590       -4.2038770
 H       -0.4654180        2.2504340       -5.7795700
 H       -2.2130680        2.4555020       -5.9841520
 H       -1.5725400        1.0462360       -5.0941520
 C       -3.7534970        2.4714770        0.7108510
 C       -4.4157860        1.2150540        1.3472370
 H       -2.7368100        2.5428920        1.1053230
 H       -4.3097870        3.3502430        1.0817530
 C       -4.4848050        1.3114760        2.8909190
 H       -5.4367250        1.0742400        0.9578430
 H       -3.8416410        0.3184820        1.0751740
 C       -5.1168620        0.0642480        3.5472260
 H       -5.0643070        2.2083070        3.1771700
 H       -3.4667750        1.4491960        3.2900390
 H       -5.1570060        0.1701360        4.6429340
 H       -4.5291660       -0.8392420        3.3212310
 H       -6.1459650       -0.1026580        3.1889390
 C        1.9213360        4.8947780       -1.4214000
 C        3.2275110        4.9428040       -0.5686360
 C        2.0869570        3.9439750       -2.6408340
 C        1.7821210        6.3304160       -2.0163320
 H        4.0501950        5.3428100       -1.1802730
 H        3.5370830        3.9681880       -0.1953760
 H        3.1081380        5.6109060        0.2988470
 H        1.3477250        4.1646660       -3.4224790
 H        1.9894350        2.8908140       -2.3803720
 H        3.0803280        4.0906700       -3.0903810
 H        1.7713850        7.1113920       -1.2463620
 H        0.8966470        6.4464750       -2.6511210
 H        2.6582050        6.5159910       -2.6557060
 C       -6.4527300        2.1301750       -3.5611490
 C       -7.1941270        3.4696550       -3.8264490
 H       -7.0950110        1.4895630       -2.9357220
 H       -6.3218850        1.6037010       -4.5202510
 H       -8.1646310        3.2843110       -4.3130700
 H       -6.6043710        4.1272760       -4.4827270
 H       -7.3822350        4.0126090       -2.8878580
 C       -1.7258920        5.8183970       -0.6328760
 C       -2.2417380        5.6969230        0.8243400
 C       -1.0020820        7.1996630       -0.7045790
 C       -2.9468290        5.9456760       -1.6012230
 H       -1.4530000        5.9238110        1.5482520
 H       -2.6479940        4.7134910        1.0494760
 H       -3.0438570        6.4333530        0.9841840
 H       -1.6918840        7.9645250       -0.3178730
 H       -0.7399950        7.4894640       -1.7284460
 H       -0.0994380        7.2392480       -0.0843680
 H       -3.6757120        5.1412920       -1.4813050
 H       -2.6289260        5.9640860       -2.6542820
 H       -3.4665970        6.8948500       -1.4009380
 C       -0.0325390        3.6606440        2.8451670
 C        0.1237990        4.9844250        3.6385610
 H       -0.5890490        2.9432430        3.4703920
 H       -0.6551250        3.8311860        1.9686280
 H       -0.8644930        5.3937010        3.8989260
 H        0.6689140        5.7472910        3.0613210
 H        0.6708280        4.8349640        4.5794980
 C        3.3197550        1.2812930       -0.4437640
 C        3.7208840       -0.2232140       -0.4471130
 H        2.5781360        1.4254300       -1.2283480
 H        4.2115610        1.8616720       -0.7405260
 C        4.4324070       -0.6409040       -1.7566580
 H        4.3868550       -0.4538310        0.3983700
 H        2.8196100       -0.8397280       -0.3101220
 C        4.7907320       -2.1430150       -1.7970560
 H        5.3551690       -0.0432810       -1.8746510
 H        3.7870150       -0.4002970       -2.6153870
 H        5.4531260       -2.4227970       -0.9613550
 H        5.3063520       -2.4035030       -2.7352050
 H        3.8844760       -2.7656680       -1.7303220
 C        4.3238110        1.7177010        4.4722480
 C        5.3440900        2.8643600        4.7133690
 H        4.8782480        0.7848830        4.2824030
 H        3.7472660        1.5572920        5.3975650
 H        4.8318030        3.8100630        4.9467340
 H        5.9702030        3.0325650        3.8240050
 H        6.0091020        2.6199340        5.5567790
