53
M00000354_2D_DFT last geometry from G09 out file
 Ru       -0.2622640       -0.1215270        0.1538880
 C        1.4808240       -0.5136390        0.4836560
 Cl       -0.3152740       -0.5907330       -2.2078210
 Cl       -1.2724080       -0.3679790        2.3450330
 H        2.3380720        0.1625850        0.5225420
 H        1.6934270       -1.5965440        0.6120630
 C       -0.2740980        1.8182880        0.0671800
 N        0.6079470        2.7860470        0.5502720
 N       -1.3330290        2.5080560       -0.5318260
 C        0.2283620        4.1574510        0.0797350
 C        1.9385540        2.6080740        1.0885020
 C       -1.2440890        3.9832770       -0.3104400
 H        0.8534090        4.4474650       -0.7801480
 H        0.3800720        4.8961490        0.8757410
 H       -1.5201350        4.5217580       -1.2222370
 C        2.2092880        2.3762220        2.4889560
 C        3.0091020        2.6963940        0.1672780
 C        3.5867360        2.1801740        2.8470740
 C        4.6044490        2.2436980        1.8938250
 H        3.8490670        2.0234200        3.8888990
 C        4.3538760        2.5152700        0.5357250
 H        5.1550730        2.5603410       -0.1978260
 C       -2.5634220        1.9661740       -1.0525600
 C       -3.0500880        2.3560940       -2.3526770
 C       -3.3566540        1.1434790       -0.2233490
 C       -4.3406980        1.8918030       -2.7338130
 C       -5.0926210        1.0708740       -1.8826640
 H       -4.7362690        2.1387970       -3.7143490
 C       -4.6204180        0.6687650       -0.6249800
 H       -5.2118120        0.0370090        0.0339950
 N       -2.3209870        3.2204500       -3.2147530
 C       -0.9617820        2.8344130       -3.6653570
 C       -3.0604030        3.9962960       -4.2270290
 H       -0.4727110        2.1985730       -2.9281360
 H       -0.3536420        3.7375920       -3.8354550
 H       -1.0041010        2.2640790       -4.6125130
 H       -3.3366910        3.4048720       -5.1231350
 H       -2.4232860        4.8270730       -4.5654310
 H       -3.9741240        4.4232930       -3.7935560
 H       -3.0014970        0.8956780        0.7747310
 H       -1.9310970        4.2725230        0.5019590
 Cl       -6.7293530        0.5022680       -2.4465550
 N        1.2467680        2.3061820        3.4960150
 C        1.4750240        1.4909150        4.7017550
 C        0.0021410        3.0923970        3.5106780
 H        0.5101700        1.0973140        5.0487970
 H        1.9347450        2.0662120        5.5278050
 H        2.1115230        0.6273660        4.4728940
 H       -0.8666020        2.5009860        3.1875350
 H        0.0955460        3.9823770        2.8824250
 H       -0.1803560        3.4431490        4.5391670
 H        2.7726540        2.8584250       -0.8850930
 Cl        6.3251850        2.0018260        2.4430760
