91
M00000357_2D_DFT last geometry from G09 out file
 Ru        0.2916500        0.0444490       -0.4570340
 C       -1.2768700       -0.7593640       -0.8813740
 Cl        0.4262910       -0.5393470        1.8828210
 Cl        1.1271620        0.1533580       -2.7439450
 H       -2.2536030       -0.3218240       -1.0924310
 H       -1.1935260       -1.8640960       -0.9843760
 C       -0.0398060        1.9545870       -0.2772110
 N        1.0383490        2.8078600       -0.0013640
 N       -1.1736510        2.7254990       -0.4712410
 C        0.6721380        4.2660540       -0.2432280
 C        2.1149500        2.4816110        0.9576070
 C       -0.8942180        4.2237840       -0.3723220
 H        0.9594290        4.8198130        0.6584990
 H       -1.1892040        4.6534990       -1.3377510
 C        1.8279510        2.7713780        2.3172310
 C        3.3987160        1.9609110        0.6215520
 C        2.7720010        2.5981080        3.3358600
 C        4.0676480        2.1148510        3.0302730
 H        2.4881550        2.8224490        4.3645070
 C        4.3346610        1.8079420        1.6818270
 H        5.3245710        1.4258220        1.4288420
 C       -2.4004480        2.2605220       -1.1143360
 C       -2.5141110        2.4673430       -2.5091620
 C       -3.4761220        1.6513580       -0.3995580
 C       -3.6826680        2.1296250       -3.2104290
 C       -4.7863870        1.5642100       -2.5274670
 H       -3.7208030        2.2986350       -4.2868020
 C       -4.6444670        1.3327080       -1.1399750
 H       -5.4791400        0.8738830       -0.6110340
 H       -1.6638490        2.8747710       -3.0527050
 C       -3.4047320        1.3365160        1.0984420
 C       -4.1812480        0.0884640        1.5824370
 H       -3.7831310        2.2052290        1.6634280
 H       -2.3558430        1.2156100        1.3890820
 H       -3.9664460       -0.0784220        2.6487840
 H       -3.8761310       -0.8174840        1.0394540
 H       -5.2711820        0.1983050        1.4824750
 C        1.4551240        4.9455350       -1.4617740
 C        2.9571970        5.1067240       -1.0809960
 C        1.3272900        4.1317870       -2.7781200
 C        0.9276540        6.3875690       -1.7390090
 H        3.0745150        5.6634560       -0.1380170
 H        3.4805130        5.6725230       -1.8664420
 H        3.4651420        4.1489250       -0.9719360
 H        0.3026390        4.1588520       -3.1760930
 H        1.6104390        3.0836390       -2.6536290
 H        1.9796390        4.5704590       -3.5481810
 H        1.0581050        7.0518180       -0.8746520
 H       -0.1280510        6.4106420       -2.0385200
 H        1.5054320        6.8157650       -2.5715250
 C       -6.0868770        1.1883000       -3.2504610
 C       -5.8637170        0.0683440       -4.3056340
 C       -6.7838730        2.4262280       -3.8812980
 H       -6.7769820        0.7822750       -2.4914460
 H       -5.2021160        0.4026110       -5.1186110
 H       -6.8229950       -0.2310730       -4.7557500
 H       -5.4089220       -0.8230600       -3.8481020
 H       -6.1692180        2.8770230       -4.6747930
 H       -6.9786400        3.2009040       -3.1242850
 H       -7.7474250        2.1367940       -4.3287570
 C       -1.7373080        5.0239890        0.7294890
 C       -1.6020320        4.4286970        2.1587240
 C       -1.2693090        6.5117570        0.8021150
 C       -3.2409590        5.0817550        0.3138750
 H       -2.3751570        4.8575540        2.8137130
 H       -0.6321410        4.6811120        2.6073330
 H       -1.7159620        3.3414300        2.1720460
 H       -1.8606450        7.0265250        1.5740050
 H       -1.4308110        7.0443120       -0.1438870
 H       -0.2141150        6.6159280        1.0831230
 H       -3.7785670        5.7730540        0.9802930
 H       -3.7413520        4.1137950        0.3714420
 H       -3.3574090        5.4580510       -0.7140120
 H        0.8309410        3.1098120        2.5789490
 C        3.8605730        1.5671940       -0.7819130
 C        4.3979410        0.1163010       -0.9028550
 H        4.6719980        2.2499220       -1.0903900
 H        3.0498330        1.6946610       -1.5025570
 H        3.6463060       -0.6185830       -0.5857210
 H        5.3034800       -0.0433200       -0.2998250
 H        4.6489560       -0.0965300       -1.9524530
 C        5.1369620        1.9008770        4.1089660
 C        4.7238690        0.7889890        5.1146060
 C        5.5064520        3.2190020        4.8445190
 H        6.0498780        1.5497920        3.5984260
 H        3.8315710        1.0759760        5.6908350
 H        5.5387860        0.5956820        5.8298450
 H        4.4950240       -0.1512550        4.5916340
 H        5.8369330        3.9913290        4.1333810
 H        6.3243150        3.0423090        5.5605180
 H        4.6516840        3.6227280        5.4078340
