67
M00000358_2D_DFT last geometry from G09 out file
 Ru        0.4524570        0.1137090       -0.2742900
 C       -0.6922290       -0.5939820       -1.4951700
 Cl       -0.6592230       -0.2964520        1.8433220
 Cl        2.4302790        0.1743380       -1.6492740
 H       -1.3543820       -0.0728010       -2.1928030
 H       -0.6626930       -1.7012880       -1.5757430
 C        0.0395830        2.0017480       -0.3752940
 N        0.9645320        2.9629360        0.0325650
 N       -1.0856400        2.6886210       -0.8214850
 C        0.5463690        4.3253540       -0.3763450
 C        2.2203610        2.7480030        0.6918250
 C       -0.9861280        4.1850160       -0.5504880
 H        1.0298080        4.6057630       -1.3267540
 H        0.8220270        5.0557010        0.3921610
 C       -1.7779390        4.6266720        0.7229580
 C       -1.5513940        5.1318350       -1.6396680
 C       -1.9540820        6.1680990        0.5786710
 H       -1.2620480        4.3338710        1.6477220
 H       -2.7573990        4.1304060        0.7237940
 C       -1.6423240        6.5028710       -0.9205660
 H       -2.9769670        6.4662130        0.8503650
 H       -1.2769950        6.7164550        1.2497560
 H       -0.6885460        7.0461370       -1.0033490
 H       -2.4130050        7.1433890       -1.3725280
 H       -2.5577250        4.8021350       -1.9293640
 H       -0.9306350        5.1570060       -2.5461580
 C        3.3747750        3.4492000        0.2673950
 C        2.3182760        1.8831700        1.8076310
 C        4.5994870        3.2674220        0.9299740
 C        4.7262390        2.3773670        2.0309830
 H        5.4804900        3.7879520        0.5538580
 C        3.5549900        1.6937950        2.4496650
 H        3.5931570        1.0346630        3.3172090
 C       -2.3477370        2.1036530       -1.2134570
 C       -2.7739690        2.1822360       -2.5605030
 C       -3.1897810        1.4788500       -0.2642800
 C       -4.0207220        1.6568310       -2.9467840
 C       -4.8806150        1.0273990       -2.0061250
 H       -4.3338110        1.7536950       -3.9863740
 C       -4.4304760        0.9462540       -0.6608070
 H       -5.0396290        0.4327210        0.0829910
 H        3.3336340        4.0996820       -0.6056730
 H        1.4313970        1.3864290        2.1967780
 C        6.0351680        2.1726040        2.7196230
 C        6.4195290        0.8878230        3.1917020
 C        6.9372790        3.2524890        2.9225250
 C        7.6546120        0.6911240        3.8412250
 H        5.7643760        0.0328780        3.0214000
 C        8.5391420        1.7745260        4.0354890
 H        7.9298960       -0.3076860        4.1849550
 C        8.1729580        3.0568440        3.5715670
 H        9.4959940        1.6221230        4.5378240
 H        8.8439210        3.9047040        3.7225630
 H        6.6600070        4.2560250        2.5972350
 H       -2.1241170        2.6421480       -3.3046370
 H       -2.8553240        1.3712170        0.7650670
 C       -6.2030730        0.4662770       -2.4183330
 C       -7.3367870        0.5631180       -1.5664830
 C       -6.3668440       -0.1810400       -3.6732270
 C       -8.5847540        0.0352520       -1.9538970
 H       -7.2503400        1.0764360       -0.6081900
 C       -8.7308880       -0.6048030       -3.2038560
 H       -9.4419550        0.1297860       -1.2848100
 C       -7.6140150       -0.7104450       -4.0611070
 H       -9.6966490       -1.0151090       -3.5035850
 H       -7.7107950       -1.2127870       -5.0253110
 H       -5.5094100       -0.3001740       -4.3365790
