97
Mol_000101_2D_DFT last geometry from G09 out file
 Ru        0.2912630       -0.1397100       -0.8240560
 C       -1.2288720       -1.0354390       -1.2426500
 Cl        0.6518430       -1.0504620        1.3848380
 Cl        0.9662350        0.4061710       -3.1040820
 H       -2.2639760       -0.6919030       -1.2566690
 H       -1.0545200       -2.0925490       -1.5429620
 C       -0.1911960        1.7011610       -0.3998280
 N        0.8167490        2.5954250       -0.0293200
 N       -1.3690280        2.4042130       -0.5614900
 C        1.9427910        2.2440640        0.8450450
 C        0.3944790        4.0489950       -0.3664490
 C        3.2699340        1.9376580        0.4109530
 C        1.6612460        2.2460100        2.2370110
 C        4.2403730        1.6962760        1.4216050
 C        3.9743290        1.7211460        2.8053820
 H        5.2565810        1.4619030        1.1038340
 C        2.6432440        1.9945530        3.2024120
 H        2.3630550        1.9935940        4.2560760
 C       -1.2063390        3.9120940       -0.2031730
 C       -2.5726100        1.8474830       -1.1638180
 C       -3.6486480        1.2780390       -0.4131290
 C       -2.6459800        1.8680130       -2.5799950
 C       -4.7752160        0.8187240       -1.1489800
 C       -4.8760530        0.8666070       -2.5564760
 H       -5.6089330        0.3884090       -0.5930730
 C       -3.7696950        1.3909600       -3.2699580
 H       -3.7721190        1.4206980       -4.3597150
 C       -6.1315730        0.3441850       -3.2676000
 C       -5.8214540       -0.8791470       -4.1755920
 C       -6.8608050        1.4643750       -4.0613100
 H       -6.8291850       -0.0031720       -2.4865380
 H       -5.3450340       -1.6884470       -3.6020430
 H       -5.1463170       -0.6107890       -5.0016780
 H       -6.7497520       -1.2745700       -4.6164570
 H       -7.7929410        1.0774800       -4.5016400
 H       -6.2382490        1.8501920       -4.8823910
 H       -7.1186970        2.3109700       -3.4071180
 C        0.8950490        4.2719450       -1.8485920
 C        0.8270010        5.6668580       -2.5275380
 H        1.9498810        3.9795680       -1.8297740
 H        0.4084830        3.5320130       -2.4973550
 H        1.1528780        6.4843900       -1.8716830
 H       -0.1698480        5.9215200       -2.9042760
 H        1.5042560        5.6609990       -3.3967270
 C        0.9827130        5.1199870        0.6018550
 C        2.4781000        5.5113880        0.5218190
 H        0.3952870        6.0339000        0.4341070
 H        0.7834710        4.8123540        1.6329690
 H        2.7833480        5.8537840       -0.4737940
 H        3.1405060        4.6947440        0.8206940
 H        2.6529980        6.3463720        1.2196170
 C       -1.9788550        4.8498120       -1.1865740
 C       -3.5168630        5.0026240       -1.0726410
 H       -1.5433790        5.8507170       -1.0587140
 H       -1.7494550        4.5473980       -2.2134910
 H       -3.8404290        5.3906540       -0.0991290
 H       -4.0532290        4.0684340       -1.2614080
 H       -3.8469880        5.7279500       -1.8339940
 C       -1.7561230        4.0745690        1.2637740
 C       -1.8923670        5.4724680        1.9298470
 H       -2.7625140        3.6511920        1.2284930
 H       -1.1805670        3.4195580        1.9306500
 H       -2.2606020        6.2440410        1.2423010
 H       -0.9572580        5.8384890        2.3667790
 H       -2.6221900        5.3978240        2.7521220
 C        3.7190700        1.8101340       -1.0552790
 C        4.2973880        0.3956960       -1.3557350
 C        4.7579620        2.8944080       -1.4650330
 H        2.8405120        1.9308630       -1.6969320
 H        4.4639500        0.2859610       -2.4371170
 H        3.6065680       -0.3981080       -1.0432830
 H        5.2574860        0.2290540       -0.8449290
 H        4.3760990        3.9129750       -1.3165060
 H        5.0123740        2.7805010       -2.5302160
 H        5.6906400        2.8006750       -0.8887170
 H        0.6381370        2.4223420        2.5610060
 C        5.0855260        1.4263740        3.8210190
 C        4.8124970        0.1122440        4.6062650
 C        5.3354380        2.6193330        4.7851610
 H        6.0172430        1.2725990        3.2503850
 H        3.9099680        0.1939660        5.2301880
 H        5.6601890       -0.1225000        5.2690960
 H        4.6673110       -0.7349190        3.9198950
 H        6.1826170        2.4009890        5.4540360
 H        4.4566230        2.8222910        5.4155660
 H        5.5698960        3.5387010        4.2271670
 C       -3.6500140        1.0859160        1.1163880
 C       -3.6714620       -0.4151460        1.5305630
 C       -4.8305610        1.8348340        1.8025940
 H       -2.7131010        1.4952730        1.5096090
 H       -4.5606430       -0.9355680        1.1449240
 H       -3.6880730       -0.4941540        2.6286100
 H       -2.7769470       -0.9424350        1.1797340
 H       -4.8795220        2.8937010        1.5111690
 H       -4.7210250        1.7868940        2.8970680
 H       -5.7988820        1.3788920        1.5488940
 H       -1.7881000        2.2347490       -3.1392920
