73
Mol_000260_2D_DFT last geometry from G09 out file
 Ru        0.0627030       -0.6952820        0.7215070
 C       -1.4589430       -1.4593310        0.0774440
 Cl       -0.4920480       -0.4825370        3.0482680
 Cl        1.5873760       -1.5254130       -0.9214150
 H       -2.2442070       -1.0083020       -0.5318960
 H       -1.5653010       -2.5377860        0.3157220
 C       -0.1277880        1.1365060        0.2526560
 N        0.9392190        2.0566130        0.4653800
 N       -1.2368800        1.9067180       -0.1780520
 C        2.2930640        1.7239910        0.9217050
 C        0.4629450        3.4067460        0.4746110
 C        3.4122050        1.7696260        0.0370480
 C        2.4543130        1.4013420        2.2895430
 C        4.6694620        1.4356660        0.5998460
 C        4.8554810        1.0819270        1.9555730
 H        5.5437210        1.4484970       -0.0509990
 C        3.7200400        1.0736920        2.8004210
 H        3.8190060        0.8119610        3.8548990
 C       -0.9050760        3.3019970       -0.2720600
 C       -2.4879180        1.4447800       -0.7744220
 C       -3.7058870        1.3944430       -0.0389770
 C       -2.4466580        1.1068640       -2.1487260
 C       -4.8593690        0.9841000       -0.7579160
 C       -4.8478820        0.6403500       -2.1284740
 H       -5.8075570        0.9304500       -0.2228310
 C       -3.6111910        0.7032320       -2.8193040
 H       -3.5587890        0.4394850       -3.8766260
 C       -6.1301130        0.2484010       -2.8503330
 C       -6.8565030        1.4587400       -3.5103030
 H       -6.8253940       -0.2352260       -2.1453680
 H       -5.9058730       -0.4937080       -3.6338400
 C       -8.1531710        1.0515280       -4.2429420
 H       -6.1699820        1.9501820       -4.2194720
 H       -7.0887920        2.2073330       -2.7347480
 H       -8.8757430        0.5875390       -3.5526520
 H       -8.6397690        1.9292860       -4.6958050
 H       -7.9487720        0.3291810       -5.0493720
 F        1.3378810        4.3370640       -0.1155710
 F        0.2622140        3.9080170        1.8115080
 F       -0.7585010        3.7402280       -1.6351450
 F       -1.8925100        4.1549560        0.2635200
 C        3.3376830        2.1887870       -1.4417270
 C        3.8968670        1.1080140       -2.4092970
 C        4.0680670        3.5447670       -1.6791120
 H        2.2808390        2.3362290       -1.7033840
 H        4.9759730        0.9494320       -2.2659800
 H        3.7483650        1.4351200       -3.4502420
 H        3.3882290        0.1473930       -2.2741900
 H        5.1512220        3.4487870       -1.5113230
 H        3.6896760        4.3344680       -1.0182840
 H        3.9189900        3.8708260       -2.7199540
 H        1.5886930        1.4058730        2.9463920
 C        6.2413990        0.7594340        2.4978890
 C        6.9877000        2.0060380        3.0602700
 H        6.8589840        0.3093520        1.7039490
 H        6.1612730        0.0083770        3.3004200
 C        8.3899770        1.6672870        3.6108400
 H        6.3783780        2.4632720        3.8574910
 H        7.0759160        2.7642540        2.2643700
 H        9.0358640        1.2388910        2.8276870
 H        8.8881780        2.5693370        3.9991190
 H        8.3318370        0.9366480        4.4334700
 C       -3.8232470        1.7459510        1.4525960
 C       -4.3321340        0.5433640        2.2978910
 C       -4.7253050        2.9939620        1.6784100
 H       -2.8216720        1.9953360        1.8263270
 H       -3.6761640       -0.3300070        2.1907680
 H       -5.3545960        0.2486350        2.0183110
 H       -4.3430870        0.8191890        3.3628210
 H       -5.7693570        2.7982400        1.3913510
 H       -4.3688400        3.8583520        1.1031750
 H       -4.7183040        3.2689250        2.7440450
 H       -1.4973140        1.1568120       -2.6809060
