97
Mol_000261_2D_DFT last geometry from G09 out file
 Ru        0.3969690       -0.0644050       -0.2016530
 C       -0.8293220       -0.9731900       -1.1855040
 Cl       -0.2734180       -0.8925880        1.9643110
 Cl        2.0583380        0.2668150       -1.9600390
 H       -1.7750680       -0.6359100       -1.6126200
 H       -0.5707560       -2.0431610       -1.3467770
 C       -0.1961160        1.7998480       -0.1387500
 N        0.5173420        2.7233270        0.6296060
 N       -1.1409090        2.4983660       -0.8795000
 C        1.5484020        2.3134360        1.5878660
 C        0.3852240        4.1315530       -0.0069450
 C        2.7800530        1.8274430        1.0767230
 C        1.3558870        2.3638720        3.0066110
 C        3.8078390        1.3755780        1.9189770
 C        3.6452800        1.4033560        3.3230670
 H        4.7244700        0.9948330        1.4678040
 C        2.4231040        1.9052460        3.8206780
 H        2.2848100        1.9251200        4.9021520
 C       -1.1513440        4.0082400       -0.4878060
 C       -2.2672650        1.8473350       -1.5391970
 C       -3.2601610        1.2823090       -0.6987410
 C       -2.4087270        1.7331190       -2.9577720
 C       -4.4069720        0.6635700       -1.2206700
 C       -4.6063450        0.5873040       -2.6200120
 H       -5.1435280        0.2376180       -0.5371090
 C       -3.5915580        1.1179350       -3.4474590
 H       -3.7077620        1.0359750       -4.5273470
 C       -5.8687040       -0.0698320       -3.1953890
 C       -5.5440120       -1.3441810       -4.0246670
 C       -6.7288260        0.9325160       -4.0152640
 H       -6.4830650       -0.3936860       -2.3382380
 H       -6.4735640       -1.8330970       -4.3553850
 H       -4.9716830       -2.0703110       -3.4280020
 H       -4.9541120       -1.1059850       -4.9224150
 H       -6.1962350        1.2864350       -4.9107320
 H       -6.9952820        1.8130980       -3.4114230
 H       -7.6623130        0.4530390       -4.3488070
 C        1.4436540        4.1492870       -1.1828220
 C        1.7188720        5.4277520       -2.0165260
 H        2.3941890        3.8751680       -0.7093420
 H        1.2135460        3.3264070       -1.8695790
 H        0.9426590        5.6407410       -2.7597940
 H        2.6575740        5.2759960       -2.5731640
 H        1.8509980        6.3286300       -1.4042270
 C        0.6449040        5.2939670        1.0019050
 C        2.1042380        5.6261150        1.4087290
 H        0.2107220        6.2018160        0.5622400
 H        0.0806710        5.1071230        1.9189410
 H        2.7281110        5.9269850        0.5593570
 H        2.6035780        4.7925070        1.9118700
 H        2.0856120        6.4742200        2.1120380
 C       -1.5553940        4.8641460       -1.7212470
 C       -1.6290550        6.4020180       -1.5505010
 H       -0.8847630        4.6374410       -2.5524360
 H       -2.5489850        4.5173720       -2.0333060
 H       -0.6435940        6.8624160       -1.4222980
 H       -2.2561820        6.7103670       -0.7051730
 H       -2.0724160        6.8386230       -2.4595930
 C       -2.1621830        4.2499180        0.7037100
 C       -3.6741380        4.4236160        0.4046090
 H       -2.0413790        3.4278670        1.4197290
 H       -1.8506540        5.1614160        1.2288060
 H       -4.1086880        3.5885270       -0.1505750
 H       -3.8912260        5.3448720       -0.1509210
 H       -4.2108140        4.4948440        1.3648780
 H        2.9265000        1.7840410        0.0020150
 C        0.0840960        2.8747600        3.7088080
 C        0.3712230        4.0931570        4.6371880
 C       -0.6466360        1.7667710        4.5201740
 H       -0.6121180        3.2047060        2.9314580
 H       -0.5761950        4.5036140        5.0208980
 H        0.9078820        4.8985970        4.1191170
 H        0.9760890        3.7996390        5.5074670
 H       -0.0249620        1.3937100        5.3475700
 H       -0.9061740        0.9138140        3.8846180
 H       -1.5712690        2.1763390        4.9582010
 C        4.7272410        0.8918580        4.2826100
 C        6.0603860        1.6785290        4.1452240
 C        4.9546890       -0.6384470        4.1241220
 H        4.3591480        1.0577860        5.3094940
 H        5.9031330        2.7572060        4.2977410
 H        6.5122360        1.5409330        3.1515210
 H        6.7891570        1.3309010        4.8940640
 H        5.3527470       -0.8862450        3.1287730
 H        4.0139330       -1.1932550        4.2558940
 H        5.6752470       -0.9996700        4.8746350
 H       -3.1117790        1.3137550        0.3791890
 C       -1.3345290        2.1599670       -3.9744440
 C       -1.8588340        3.1912130       -5.0149970
 C       -0.7263320        0.9292860       -4.7095900
 H       -0.5122670        2.6248090       -3.4184280
 H       -2.6096520        2.7460880       -5.6843950
 H       -1.0271050        3.5422640       -5.6454150
 H       -2.3173800        4.0676920       -4.5374070
 H       -0.2744570        0.2253150       -4.0018230
 H        0.0668620        1.2611880       -5.3970660
 H       -1.4839090        0.3959810       -5.3032990
