68
M00000333_2D_DFT last geometry from G09 out file
 Ru       -0.0517710       -0.3660540       -0.2737980
 C        1.7548620       -0.5629480       -0.2973360
 Cl       -0.4691170       -0.8090780       -2.6032980
 Cl       -0.6550010       -0.5986570        2.0636810
 H        2.5110770        0.2120830       -0.4652780
 H        2.1299350       -1.6027040       -0.1935080
 C       -0.1991210        1.5585750       -0.3120740
 N        0.7253720        2.5612110       -0.0386590
 N       -1.3878780        2.1876500       -0.6730180
 C        0.2126120        3.9004510       -0.4508760
 C        1.9994050        2.4856300        0.6283890
 C       -1.3248290        3.6827610       -0.5364700
 H        0.6230440        4.1840460       -1.4331700
 H        0.4871120        4.6597130        0.2885390
 H       -1.7129190        4.1444140       -1.4534290
 C        2.1223140        1.9385860        1.9238890
 C        3.1461590        3.0424800        0.0123370
 C        3.3742510        1.9289970        2.5727240
 C        4.5376000        2.4798600        1.9782150
 H        3.4214730        1.4859130        3.5648010
 C        4.3837740        3.0397340        0.6803690
 H        5.2412060        3.4753270        0.1676950
 C       -2.6200290        1.5466490       -1.0793760
 C       -3.1495280        1.8017440       -2.3610080
 C       -3.3308080        0.6979310       -0.2022810
 C       -4.3616840        1.2092490       -2.7622720
 C       -5.0832710        0.3337900       -1.9107110
 H       -4.7250160        1.4238210       -3.7645090
 C       -4.5310170        0.0974390       -0.6245180
 H       -5.0408770       -0.5615270        0.0778470
 H       -2.6002660        2.4296850       -3.0633650
 H       -2.9563260        0.5088400        0.8012870
 C       -2.1063140        4.2027330        0.6560590
 C       -2.2078520        3.6995650        1.9424240
 S       -3.0371040        5.7542290        0.5036590
 C       -3.0034390        4.5117100        2.8278700
 H       -1.7422340        2.7673000        2.2541800
 C       -3.5173400        5.6460380        2.2282020
 H       -3.1880270        4.2555750        3.8695870
 H       -4.1434140        6.4243410        2.6509700
 C       -6.4081160       -0.3578950       -2.3343250
 C       -7.5497220        0.0506420       -1.3479540
 C       -6.8534060        0.0331340       -3.7717710
 C       -6.2134930       -1.9085370       -2.2940820
 H       -7.7100380        1.1392880       -1.3613230
 H       -7.3248700       -0.2425560       -0.3132790
 H       -8.4935320       -0.4376320       -1.6355520
 H       -7.7946150       -0.4799320       -4.0178330
 H       -6.1103170       -0.2635930       -4.5265830
 H       -7.0331370        1.1144950       -3.8671550
 H       -5.4105460       -2.2205750       -2.9782240
 H       -7.1414470       -2.4170450       -2.5980750
 H       -5.9514280       -2.2638430       -1.2880320
 H        1.2541570        1.5037630        2.4135280
 H        3.0776690        3.4622970       -0.9920900
 C        5.9255740        2.4889130        2.6762110
 C        6.4193770        3.9635180        2.8353060
 C        5.8871180        1.8408290        4.0888950
 C        6.9489040        1.6890750        1.8061080
 H        6.5220020        4.4711320        1.8661200
 H        7.4033120        3.9842610        3.3283920
 H        5.7177560        4.5484410        3.4487640
 H        5.5789150        0.7856900        4.0491200
 H        5.2061410        2.3749320        4.7679630
 H        6.8911220        1.8736160        4.5366080
 H        6.6272530        0.6439850        1.6836520
 H        7.9387640        1.6873170        2.2876510
 H        7.0666900        2.1238770        0.8037900
