103
M00000335_2D_DFT last geometry from G09 out file
 Ru       -0.4019960        0.3709460       -0.2502910
 C       -2.0473260       -0.2338570       -0.7134490
 Cl       -0.5570760        0.1288030        2.1484420
 Cl        0.5984640       -0.0825250       -2.4337570
 H       -2.9027750        0.3043590       -1.1234350
 H       -2.1588670       -1.3356130       -0.6041300
 C       -0.3906260        2.3215290       -0.4274070
 N        0.7610880        3.0330300       -0.0649880
 N       -1.2967830        3.1927120       -1.0134690
 C        0.7443460        4.4580170       -0.6235310
 C        1.6650740        2.6645860        1.0562080
 C       -0.7156110        4.5975900       -1.2287050
 H        0.8608470        5.1420220        0.2276590
 H       -0.6167600        4.7206690       -2.3136930
 C        1.3560110        3.1794830        2.3586190
 C        2.8534910        1.8758040        0.8922410
 C        2.2622260        2.9913450        3.4236990
 C        3.4765260        2.2972090        3.2661130
 H        1.9939870        3.3865600        4.4058410
 C        3.7266560        1.7382440        2.0009440
 H        4.6459110        1.1701930        1.8581630
 C       -2.5744160        2.7932630       -1.6101470
 C       -2.6688510        2.6465120       -3.0304390
 C       -3.7391800        2.5916740       -0.7943490
 C       -3.9296530        2.3777870       -3.6116020
 C       -5.1053290        2.2524290       -2.8435340
 H       -3.9850320        2.2610560       -4.6956620
 C       -4.9746900        2.3473690       -1.4429360
 H       -5.8656430        2.2223740       -0.8276950
 C       -1.4758110        2.7461830       -3.9656450
 H       -1.6750150        2.1863770       -4.8890640
 H       -0.5696990        2.3283440       -3.5223090
 H       -1.2749320        3.7885160       -4.2632380
 C       -3.7469550        2.6354400        0.7378680
 C       -4.4560080        1.4549890        1.4620160
 H       -2.7239150        2.6858280        1.1184620
 H       -4.2577830        3.5621010        1.0535190
 C       -4.4659330        1.6367320        2.9995910
 H       -5.4962700        1.3530140        1.1136350
 H       -3.9431240        0.5131380        1.2207910
 C       -5.1525950        0.4693520        3.7422180
 H       -4.9780840        2.5827340        3.2540600
 H       -3.4281850        1.7294050        3.3588340
 H       -5.1466310        0.6344880        4.8312540
 H       -4.6323790       -0.4815420        3.5470490
 H       -6.2023980        0.3518400        3.4269380
 C        1.9618070        4.7737800       -1.6304080
 C        3.2930910        4.8472410       -0.8195310
 C        2.0755520        3.7348970       -2.7812780
 C        1.8344120        6.1677980       -2.3194650
 H        3.2119140        5.5648430        0.0121200
 H        4.1039010        5.1961630       -1.4766030
 H        3.5963600        3.8883420       -0.4021740
 H        1.3109170        3.9037250       -3.5507790
 H        1.9799010        2.7050010       -2.4390090
 H        3.0535600        3.8379990       -3.2746460
 H        1.8641170        6.9995430       -1.6051030
 H        0.9318900        6.2613910       -2.9341560
 H        2.6935250        6.2891010       -2.9961530
 C       -6.4619920        2.0282300       -3.5005540
 C       -7.1998170        3.3500840       -3.8506770
 H       -7.1046060        1.4312180       -2.8337660
 H       -6.3342690        1.4405400       -4.4238040
 H       -8.1721380        3.1364270       -4.3217510
 H       -6.6097630        3.9614930       -4.5499220
 H       -7.3837200        3.9537080       -2.9490750
 C       -1.6322210        5.8442160       -0.7689280
 C       -2.0898590        5.8178180        0.7131580
 C       -0.8768270        7.1982350       -0.9497550
 C       -2.8899660        5.9491670       -1.6918580
 H       -2.8595290        6.5896900        0.8647220
 H       -1.2642110        6.0515880        1.3944900
 H       -2.5183720        4.8622120        1.0078080
 H       -1.5311410        8.0044160       -0.5860670
 H       -0.6452450        7.4179710       -1.9982060
 H        0.0493630        7.2487960       -0.3658780
 H       -3.3814370        6.9190330       -1.5215800
 H       -3.6295490        5.1686460       -1.5003680
 H       -2.6162720        5.9048140       -2.7566200
 C        0.0674420        3.9020400        2.7005090
 H       -0.7340740        3.6770120        2.0001820
 H        0.2107120        4.9935630        2.7284840
 H       -0.2728000        3.5966520        3.6992510
 C        3.3129310        1.1795680       -0.3925270
 C        3.6282290       -0.3385220       -0.2432570
 H        2.5747180        1.2887200       -1.1865390
 H        4.2342430        1.6763170       -0.7455610
 C        4.3146140       -0.9271150       -1.4991660
 H        4.2782860       -0.5167580        0.6271580
 H        2.6935590       -0.8861960       -0.0487470
 C        4.5865590       -2.4434660       -1.3844000
 H        5.2699270       -0.3979840       -1.6719490
 H        3.6839830       -0.7387500       -2.3816070
 H        5.0863700       -2.8270340       -2.2882110
 H        3.6462730       -3.0037330       -1.2598950
 H        5.2318100       -2.6738020       -0.5206900
 C        4.4698580        2.1557580        4.4124640
 C        5.4830990        3.3305320        4.4969390
 H        5.0294150        1.2130040        4.3044960
 H        3.9250370        2.0898070        5.3680880
 H        6.0772260        3.4097100        3.5739010
 H        6.1785420        3.1820030        5.3381450
 H        4.9671650        4.2909440        4.6475590
