83
M00000050_2D_DFT last geometry from G09 out file
Ru       -0.2242530       -0.0257080       -0.2173770
C        1.2312390       -0.1759960       -1.2990440
Cl       -1.7935750       -0.9138910       -1.8476550
Cl        0.5137540       -0.5326890        2.0171910
H        1.8295880        0.6605300       -1.6652870
H        1.5366790       -1.2029340       -1.5746830
C       -0.2011670        1.9191300       -0.2132240
N        0.7646710        2.7867360        0.3601880
N       -1.1438810        2.7221020       -0.8823920
C        0.4941380        4.2172230        0.0124730
C        1.8269080        2.6106050        1.3901530
C       -0.7859500        4.1672710       -0.8739610
H        0.3313500        4.7993110        0.9262240
H       -0.5677610        4.4912900       -1.8986390
C        1.6162930        3.0756720        2.7493980
C        3.1666420        2.2403140        0.9901970
C        2.7677720        3.3407910        3.5383070
C        4.0584140        3.0836060        3.0866330
H        2.6467000        3.7472580        4.5354140
C        4.2627330        2.4830150        1.8494380
H        5.2656040        2.2134420        1.5287040
C       -2.3669050        2.3308270       -1.6052930
C       -2.4659840        2.3862170       -3.0450480
C       -3.5455560        2.0692490       -0.8133230
C       -3.7694210        2.2899240       -3.6013310
C       -4.9015440        2.0738840       -2.8183870
H       -3.9015900        2.3733730       -4.6732320
C       -4.8041090        1.9237100       -1.4377250
H       -5.6859080        1.7103450       -0.8393440
C       -1.3440390        2.5505350       -4.1440050
C       -1.3803440        4.0089710       -4.7116620
C        0.0963920        2.2032560       -3.6895280
C       -1.6264790        1.5595740       -5.3318350
H       -1.0986760        4.7640780       -3.9637910
H       -2.3804630        4.2733130       -5.0816670
H       -0.6742250        4.0989180       -5.5507120
H        0.7750260        2.3219220       -4.5468020
H        0.1480500        1.1620360       -3.3587870
H        0.4821710        2.8400390       -2.8961990
H       -1.7744190        0.5368380       -4.9604230
H       -0.7594620        1.5577050       -6.0083370
H       -2.4962660        1.8376420       -5.9399840
N       -3.5030170        1.9693380        0.6343160
C       -4.5153850        2.7874410        1.3534000
C       -3.5010670        0.5746490        1.1530660
H       -4.2013290        2.8910690        2.4015550
H       -5.5291870        2.3358870        1.3545490
H       -4.5841490        3.7872510        0.9148590
H       -3.1900510        0.5748250        2.2058360
H       -2.8192880       -0.0546280        0.5768470
H       -4.5030840        0.1006890        1.0858170
C        1.6555260        4.9584030       -0.7200310
F        1.2485410        6.2429390       -1.1424490
F        2.7722570        5.1656590        0.1063440
F        2.1044440        4.2967540       -1.8821290
Cl       -6.5308490        1.9562090       -3.6258800
C       -1.8730190        5.1897530       -0.4076200
F       -3.0241750        5.1642670       -1.2115700
F       -2.2907130        5.0555860        0.9277270
F       -1.3598200        6.5053340       -0.5148660
C        0.2857950        3.3058790        3.5698080
C        0.1017400        4.8272220        3.8879410
C       -1.0075720        2.7619510        2.9246150
C        0.4096160        2.5234330        4.9296160
H       -0.0896990        5.4249920        2.9852760
H        0.9785570        5.2577520        4.3902560
H       -0.7640210        4.9609170        4.5533210
H       -1.2807050        3.2434290        1.9914640
H       -1.8394780        2.9368010        3.6220480
H       -0.9325300        1.6860070        2.7531910
H        1.1697400        2.9296520        5.6082520
H        0.6388540        1.4650790        4.7475010
H       -0.5531330        2.5777830        5.4587400
N        3.4984660        1.5576720       -0.2617330
C        4.4837880        2.2570540       -1.1339150
C        3.9530900        0.1567350        0.0067820
H        5.5260140        2.1966970       -0.7580750
H        4.2220850        3.3100440       -1.2467510
H        4.4644500        1.7874260       -2.1292290
H        3.2205480       -0.3630430        0.6318550
H        4.9371360        0.1161180        0.5159480
H        4.0541610       -0.3754840       -0.9494260
Cl        5.4805170        3.4876190        4.1487010
