97
M00000087_2D_DFT last geometry from G09 out file
Ru        0.1564450        0.3358090       -0.6836110
C       -1.4240240       -0.4906320       -1.0100060
Cl        0.5216650       -0.3903560        1.5884560
Cl        0.8211140        0.5750350       -3.0031520
H       -2.4330500       -0.0871060       -1.0969410
H       -1.3130720       -1.5837920       -1.1829360
C       -0.1682210        2.2342380       -0.3844980
N        0.9172000        3.0665160       -0.0688280
N       -1.2854010        3.0315240       -0.5673030
C        0.5766350        4.5475340       -0.2483630
C        2.0114730        2.6629060        0.8184800
C       -0.9852020        4.5326490       -0.4787840
H        0.8019100        5.0482170        0.7014310
H       -1.1889090        4.9380810       -1.4764600
C        1.8120200        2.8603110        2.2129370
C        3.2804710        2.1323100        0.4218080
C        2.7637100        2.6349360        3.2005600
C        4.0296860        2.1604590        2.7943490
H        2.5316360        2.8041470        4.2495320
C        4.2576270        1.9112860        1.4275430
H        5.2339850        1.5405080        1.1306060
C       -2.5344750        2.5577620       -1.1263010
C       -2.7984640        2.7934280       -2.4986150
C       -3.5517070        1.9013320       -0.3570000
C       -3.9836490        2.4431880       -3.1463720
C       -4.9896490        1.8158080       -2.3806530
H       -4.1112650        2.6471890       -4.2055800
C       -4.7582010        1.5554030       -1.0110970
H       -5.5522330        1.0677360       -0.4525320
F       -1.8160020        3.4311050       -3.2745120
C       -3.3873610        1.5978280        1.1338060
C       -4.0332660        0.2868360        1.6577500
H       -2.3230640        1.5801780        1.3879670
H       -3.8294040        2.4344630        1.7012610
C       -3.7006870        0.0381770        3.1498570
H       -5.1290210        0.3197240        1.5436850
H       -3.6776710       -0.5712810        1.0656380
C       -4.3385220       -1.2546860        3.7036620
H       -4.0456800        0.8994980        3.7497220
H       -2.6066330       -0.0140750        3.2732190
H       -5.4375270       -1.2295160        3.6241770
H       -4.0824000       -1.3964890        4.7652150
H       -3.9812770       -2.1404520        3.1545820
C        1.4519550        5.2714590       -1.3804260
C        2.9183200        5.4247230       -0.8721040
C        1.4265350        4.5137920       -2.7361190
C        0.9536340        6.7232000       -1.6607840
H        3.4947010        6.0296680       -1.5876600
H        3.4332430        4.4697670       -0.7658190
H        2.9547080        5.9421120        0.0997720
H        0.4380330        4.5552690       -3.2094270
H        1.6947210        3.4605870       -2.6395610
H        2.1411570        4.9832020       -3.4289230
H        1.5955790        7.1601900       -2.4398010
H        1.0241590        7.3716320       -0.7785210
H       -0.0742070        6.7574260       -2.0415400
C       -6.3043620        1.4079460       -2.9710090
O       -6.3886170        1.7284600       -4.3260280
O       -7.2301040        0.8469130       -2.3416450
C       -7.6452980        1.3603320       -5.0163390
H       -7.5004880        1.6921330       -6.0498690
H       -7.8025930        0.2741760       -4.9695590
H       -8.4999200        1.8723420       -4.5534560
C       -1.9092640        5.3783450        0.5254520
C       -1.9154840        4.8611370        1.9897550
C       -1.4361180        6.8649050        0.5817380
C       -3.3733620        5.4301890       -0.0194730
H       -0.9914660        5.1249240        2.5155960
H       -2.0322010        3.7791330        2.0569840
H       -2.7479350        5.3303410        2.5358640
H       -1.5255800        7.3734170       -0.3862000
H       -0.4045960        6.9679620        0.9386390
H       -2.0774600        7.4023590        1.2956960
H       -3.9398420        6.1894970        0.5396420
H       -3.9083270        4.4838990        0.0920220
H       -3.4031190        5.7176860       -1.0816700
F        0.5541620        3.3103790        2.6439510
C        3.6980080        1.8111890       -1.0129750
C        4.1981600        0.3532020       -1.2357050
H        2.8819720        2.0052570       -1.7109510
H        4.5233500        2.4907480       -1.2889990
C        4.7847490        0.1432120       -2.6519380
H        4.9671500        0.0925310       -0.4915630
H        3.3640720       -0.3470980       -1.0797480
C        5.2473300       -1.3090470       -2.9025490
H        5.6400650        0.8282120       -2.7968110
H        4.0283720        0.4169820       -3.4038930
H        4.4046240       -2.0127000       -2.8124420
H        6.0213300       -1.6167480       -2.1805880
H        5.6685760       -1.4211830       -3.9140820
C        5.0665040        1.9355450        3.8502170
O        6.2557340        1.4314570        3.3201590
O        4.9078720        2.1663000        5.0706000
C        7.3435290        1.1592410        4.2856440
H        8.1675000        0.7766010        3.6739090
H        7.6342700        2.0819450        4.8063570
H        7.0210250        0.4119120        5.0233750
