85
Mol_000243_2D_DFT last geometry from G09 out file
 Ru        0.0686200        0.2006440        0.1492700
 C       -1.3352830       -0.6867990       -0.5813520
 Cl       -0.5120440       -0.0062760        2.4942790
 Cl        1.5434130       -0.0651840       -1.7600020
 H       -2.2093060       -0.3026400       -1.1099340
 H       -1.2515810       -1.7935030       -0.5056110
 C       -0.3043520        2.1037420       -0.0753720
 N        0.6847560        3.0430450        0.2136490
 N       -1.4435880        2.7798390       -0.4772240
 C        1.7860770        2.7634240        1.1423840
 C        0.2815400        4.4532680       -0.2935490
 C        3.1488390        2.5372680        0.7577070
 C        1.4475980        2.7531360        2.5198280
 C        4.0846060        2.3086480        1.8006900
 C        3.7513700        2.2941940        3.1732510
 H        5.1233280        2.1307660        1.5288080
 C        2.4019530        2.5257200        3.5218310
 H        2.0895240        2.5093010        4.5670680
 C       -1.3217450        4.3092060       -0.2066650
 C       -2.5335670        2.1888040       -1.2371580
 C       -3.7515830        1.7252020       -0.6507900
 C       -2.3543050        2.0896490       -2.6403220
 C       -4.7646320        1.2649600       -1.5351850
 C       -4.6110340        1.1995100       -2.9376270
 H       -5.7091140        0.9311610       -1.1059990
 C       -3.3659100        1.6008000       -3.4813490
 H       -3.1869460        1.5314970       -4.5559660
 C       -5.7335210        0.7058150       -3.8355200
 H       -6.5780970        0.3123490       -3.2538610
 H       -5.3859840       -0.0941390       -4.5078850
 H       -6.1183800        1.5177910       -4.4744130
 C        0.8471770        4.5520880       -1.7641310
 C        0.7979220        5.8846880       -2.5610750
 H        1.9001250        4.2747090       -1.6816800
 H        0.3882240        3.7569830       -2.3676270
 H        1.0864340        6.7562110       -1.9598010
 H       -0.1819460        6.0970110       -3.0021440
 H        1.5156510        5.8165470       -3.3945450
 C        0.8194630        5.6047840        0.6099300
 C        2.3149440        6.0048640        0.5570130
 H        0.2308700        6.4968470        0.3524640
 H        0.5830600        5.3705320        1.6530570
 H        2.6640760        6.2499680       -0.4530140
 H        2.9697500        5.2307570        0.9667690
 H        2.4523460        6.9068070        1.1751530
 C       -2.0558800        5.1799120       -1.2743930
 C       -3.5995620        5.3110730       -1.2435140
 H       -1.6404410        6.1932190       -1.1804330
 H       -1.7759720        4.8266250       -2.2719030
 H       -3.9014230        6.0111630       -2.0393960
 H       -3.9798360        5.7160650       -0.2980400
 H       -4.1094990        4.3628330       -1.4358500
 C       -1.9421160        4.5379800        1.2255210
 C       -2.1270360        5.9673940        1.8068280
 H       -2.9390400        4.0921410        1.1723300
 H       -1.3870570        3.9292070        1.9509870
 H       -2.8774010        5.9208070        2.6124690
 H       -2.4937150        6.6904820        1.0673540
 H       -1.2131880        6.3798360        2.2476170
 C        3.6461920        2.5922480       -0.6878770
 C        4.8631250        1.7010230       -1.0477440
 H        3.9193560        3.6377600       -0.9205380
 H        2.8252990        2.3179640       -1.3566960
 C        5.2005030        1.7688230       -2.5541790
 H        4.6433720        0.6586030       -0.7713730
 H        5.7556650        2.0071500       -0.4778170
 H        5.4385620        2.7987550       -2.8688990
 H        6.0733720        1.1392070       -2.7882200
 H        4.3571670        1.4117880       -3.1635230
 H        0.4090710        2.8950410        2.8041900
 C        4.7998050        2.0028460        4.2335810
 H        5.8143350        2.2348100        3.8799360
 H        4.7854410        0.9357640        4.5132390
 H        4.6183330        2.5800810        5.1522730
 C       -4.0065520        1.6874130        0.8573760
 C       -4.6215490        0.3708380        1.4102520
 H       -4.6888460        2.5143380        1.1275210
 H       -3.0669210        1.8614030        1.3899720
 C       -4.8039470        0.4184840        2.9436280
 H       -3.9641260       -0.4733590        1.1528120
 H       -5.5984880        0.1706240        0.9417340
 H       -5.4697560        1.2439690        3.2454950
 H       -5.2468140       -0.5196970        3.3129370
 H       -3.8373720        0.5527040        3.4508720
 H       -1.3968100        2.3825900       -3.0676770
