101
Mol_000240_2D_DFT last geometry from G09 out file
 Ru        0.1562370       -0.4215470       -0.5665230
 C       -0.8148530       -1.0876040       -1.9490720
 Cl       -0.9844040       -1.2900620        1.3945610
 Cl        2.1515520        0.0194740       -1.8900450
 H       -1.4841520       -0.5540180       -2.6302260
 H       -0.6380940       -2.1622540       -2.1736280
 C       -0.5376170        1.3884860       -0.3434980
 N        0.2042980        2.3047390        0.3822620
 N       -1.7201580        1.9961290       -0.7304390
 C        1.3924730        1.9591270        1.1378110
 C       -0.3646850        3.7184150        0.2717540
 C        2.6964300        2.2215950        0.6547820
 C        1.2676170        1.3766680        2.4223390
 C        3.8307000        1.9245950        1.4230520
 C        3.7175150        1.3351060        2.7227350
 H        4.8071180        2.1227620        0.9880000
 C        2.3954590        1.0639040        3.1969820
 H        2.2365160        0.5933780        4.1640750
 C       -1.9115770        3.3484810        0.0079960
 C       -2.7730700        1.3487540       -1.4838950
 C       -3.5406170        0.2969530       -0.9272880
 C       -3.0504930        1.7275300       -2.8176890
 C       -4.5571630       -0.3338330       -1.6601540
 C       -4.8670780        0.0619420       -3.0006020
 H       -5.0992560       -1.1465050       -1.1825450
 C       -4.0721170        1.1113640       -3.5609570
 H       -4.2334130        1.4437070       -4.5837780
 N       -5.8907550       -0.5547140       -3.7303980
 C       -6.1567130       -0.1541010       -5.1184840
 C       -6.6536880       -1.6652800       -3.1434380
 H       -6.4152280        0.9163530       -5.1913230
 H       -7.0057090       -0.7269900       -5.5088910
 H       -5.2914100       -0.3417940       -5.7796220
 H       -7.4141980       -2.0041360       -3.8563610
 H       -7.1743950       -1.3592470       -2.2199350
 H       -6.0097390       -2.5295260       -2.9012490
 C        0.3599330        4.4744780       -0.9063770
 C        0.5045490        3.8278110       -2.3072210
 H       -0.1077160        5.4658810       -1.0105780
 H        1.3803160        4.6709490       -0.5524210
 C        1.4356560        4.6594330       -3.2267910
 H        0.9164260        2.8151190       -2.2180700
 H       -0.4688670        3.7237370       -2.8048060
 C        1.6039190        4.0391180       -4.6320500
 H        2.4294670        4.7505540       -2.7530120
 H        1.0445610        5.6887510       -3.3241220
 H        0.6381170        3.9759000       -5.1595980
 H        2.0151620        3.0199480       -4.5656190
 H        2.2856470        4.6401100       -5.2547690
 C       -0.1784900        4.5343850        1.6052290
 C        1.1368560        5.3138350        1.8734700
 H       -0.9899240        5.2730050        1.6515190
 H       -0.3384600        3.8494960        2.4476680
 C        1.1405450        5.9326500        3.2947420
 H        2.0123210        4.6600790        1.7735920
 H        1.2578400        6.1288040        1.1421970
 C        2.4117790        6.7575250        3.5951130
 H        1.0470380        5.1259290        4.0425170
 H        0.2514130        6.5769180        3.4198240
 H        3.3169630        6.1346790        3.5154710
 H        2.3824880        7.1775670        4.6130570
 H        2.5203260        7.5973190        2.8898310
 C       -2.6880250        4.3651830       -0.8811260
 C       -2.9740040        5.7740580       -0.2946190
 H       -2.1607360        4.4961480       -1.8321470
 H       -3.6541150        3.9088960       -1.1345810
 C       -3.8691870        6.6151650       -1.2397700
 H       -3.4713790        5.6977350        0.6838130
 H       -2.0362070        6.3246230       -0.1265270
 C       -4.1635310        8.0331980       -0.7023890
 H       -4.8224640        6.0837190       -1.4072790
 H       -3.3831660        6.6945920       -2.2282830
 H       -4.8022630        8.5977270       -1.3998030
 H       -3.2345760        8.6086350       -0.5604720
 H       -4.6832410        7.9931290        0.2684290
 C       -2.6815770        3.0569280        1.3583030
 C       -4.2192180        2.8456220        1.3219800
 H       -2.2159780        2.1741260        1.8196180
 H       -2.5077520        3.8908180        2.0488520
 C       -4.7623790        2.4173800        2.7094270
 H       -4.7252440        3.7777780        1.0250740
 H       -4.5047410        2.0886820        0.5843700
 C       -6.2983570        2.2536400        2.7389980
 H       -4.4620220        3.1614130        3.4692020
 H       -4.2893910        1.4652050        3.0065360
 H       -6.6457680        1.9408230        3.7364200
 H       -6.6313040        1.4929150        2.0148720
 H       -6.8072020        3.1986560        2.4884230
 H        2.8316640        2.6226460       -0.3460380
 H        0.2786240        1.1378600        2.8085890
 N        4.8486290        1.0297650        3.4891910
 C        6.1952620        1.2516370        2.9440990
 C        4.7027950        0.3600910        4.7891500
 H        6.3626620        2.3130430        2.6934830
 H        6.3798150        0.6526040        2.0343580
 H        6.9443060        0.9661980        3.6918020
 H        5.6916170        0.2161540        5.2398200
 H        4.2261720       -0.6321790        4.6947890
 H        4.1009800        0.9619810        5.4912450
 H       -3.3163370       -0.0555110        0.0768680
 H       -2.4503570        2.4991900       -3.2960810
