73
Mol_000310_2D_DFT last geometry from G09 out file
 Ru        0.3168770        0.0470950       -0.0744420
 C       -1.1795180       -0.8335400       -0.5966600
 Cl        0.1319760       -0.3150430        2.3081100
 Cl        1.4099320       -0.1395040       -2.2524810
 H       -2.1235240       -0.4615970       -0.9977190
 H       -1.0719540       -1.9389720       -0.5333150
 C       -0.0249820        1.9775980       -0.1467660
 N        0.9548380        2.8724650        0.3055130
 N       -1.0670900        2.7058410       -0.7000950
 C        0.6597050        4.3118310       -0.1141240
 C        1.9363550        2.5492970        1.3637390
 C       -0.7902680        4.2141930       -0.7451240
 H        0.6238520        4.9182300        0.7996560
 H       -0.7155250        4.4817010       -1.8055810
 C        1.5969740        2.8631380        2.7239670
 C        3.2075760        1.9494390        1.0784500
 C        2.5285740        2.6226420        3.7565290
 C        3.7634190        2.0503420        3.4476990
 H        2.2782830        2.8443400        4.7925930
 C        4.1065410        1.6976880        2.1453950
 H        5.0716540        1.2337440        1.9472590
 C       -2.2229510        2.1231060       -1.3758800
 C       -2.2683910        2.1100980       -2.8088000
 C       -3.3225030        1.6042820       -0.6163800
 C       -3.4417970        1.6639900       -3.4601730
 C       -4.5281320        1.2281630       -2.6969000
 H       -3.5007780        1.6455500       -4.5472010
 C       -4.4829510        1.1681910       -1.3028480
 H       -5.3350050        0.7744400       -0.7499480
 C       -1.1030210        2.5293030       -3.6863010
 H       -0.1432100        2.2550880       -3.2434020
 H       -1.1050470        3.6143250       -3.8788520
 H       -1.1680940        2.0323270       -4.6628600
 C       -3.3342810        1.4188450        0.8940320
 H       -4.0605270        2.0950770        1.3700980
 H       -2.3575020        1.5626930        1.3557420
 H       -3.6505530        0.3942620        1.1380810
 C        1.7953220        4.9709510       -1.0439790
 C        3.0789540        5.2166610       -0.1904740
 C        2.1229610        4.1130490       -2.2983520
 C        1.3868300        6.3795730       -1.5764500
 H        2.8521420        5.8178690        0.7040570
 H        3.8127450        5.7804320       -0.7854610
 H        3.5619140        4.2977960        0.1411040
 H        1.3447920        4.2129740       -3.0660660
 H        2.2357440        3.0531530       -2.0733190
 H        3.0626510        4.4649100       -2.7488270
 H        1.2414950        7.1115120       -0.7728080
 H        0.4851990        6.3555350       -2.1995140
 H        2.2036220        6.7522960       -2.2123090
 F       -5.6956380        0.8019820       -3.3572520
 C       -1.9491350        5.1745500       -0.1653730
 C       -2.4105830        4.8386540        1.2775510
 C       -1.4876390        6.6653050       -0.1310880
 C       -3.1865800        5.1495680       -1.1214200
 H       -2.5906010        3.7756560        1.4249390
 H       -3.3504370        5.3699900        1.4898640
 H       -1.6810780        5.1714350        2.0241960
 H       -2.2962670        7.2620170        0.3163420
 H       -1.2997790        7.0739670       -1.1306960
 H       -0.5952790        6.8211700        0.4863200
 H       -3.7534150        4.2172600       -1.0675660
 H       -2.8927950        5.3122610       -2.1694230
 H       -3.8708020        5.9656580       -0.8454780
 C        0.2534940        3.4192190        3.1509040
 H       -0.5575390        3.0451930        2.5260820
 H        0.2412400        4.5196990        3.1172930
 H        0.0360230        3.1262220        4.1856520
 C        3.7335950        1.5664640       -0.2944210
 H        4.4726440        2.3044130       -0.6444990
 H        2.9629320        1.4716240       -1.0541150
 H        4.2497960        0.5979810       -0.2423910
 F        4.6803240        1.8068340        4.4869660
