62
Mol_000312_2D_DFT last geometry from G09 out file
 Ru        0.3683660        0.3425220       -0.0827030
 C        0.8302590        0.0789150        1.6683900
 Cl        2.5954450        0.5630670       -1.0761820
 Cl       -1.8506030       -0.6601300        0.2363740
 H        0.7664910        0.7726040        2.5146810
 H        1.1588460       -0.9455930        1.9448510
 C        0.0348220        2.2399350       -0.0845490
 N        0.7739180        3.2639250        0.4915270
 N       -0.8603440        2.8555140       -0.9741890
 C        0.4351200        4.6032140       -0.0637980
 C        1.7023530        3.2182520        1.5933040
 C       -0.4070580        4.2780610       -1.3281800
 H        1.3601020        5.1396400       -0.3064280
 H       -0.1353780        5.1807020        0.6755790
 C        0.4615390        4.1957400       -2.6268170
 C       -1.5570870        5.2960680       -1.5373070
 C        0.9670160        5.5741320       -3.1202840
 H        1.3068590        3.5135430       -2.4577900
 H       -0.1589740        3.7445600       -3.4174740
 C       -0.1897120        6.5857670       -3.2842450
 H        1.7134150        5.9827870       -2.4177780
 H        1.4946660        5.4369900       -4.0784460
 C       -1.0284200        6.6822680       -1.9897900
 H       -0.8408200        6.2675300       -4.1172490
 H        0.2071510        7.5783740       -3.5536670
 H       -1.8895910        7.3529950       -2.1444490
 H       -0.4221870        7.1380820       -1.1884380
 H       -2.1401000        5.4078080       -0.6125550
 H       -2.2431040        4.9189260       -2.3104210
 C        1.2631150        3.3520810        2.9485450
 C        3.0814340        3.1014530        1.3179460
 C        2.2321230        3.3574100        3.9854110
 C        3.6055040        3.2557730        3.6969830
 H        1.8954920        3.4381170        5.0170300
 C        4.0308050        3.1226600        2.3589900
 H        5.0911790        3.0217560        2.1236830
 C       -2.1435140        2.3359440       -1.3862230
 C       -2.3189450        1.4869520       -2.5170420
 C       -3.2887440        2.7658670       -0.6777650
 C       -3.6259670        1.1695050       -2.9630540
 C       -4.7559850        1.6406960       -2.2713540
 H       -3.7429610        0.5220860       -3.8303780
 C       -4.5839800        2.4204860       -1.1086760
 H       -5.4509290        2.7549830       -0.5367620
 H       -3.1504330        3.3627050        0.2222080
 H       -5.7559720        1.3764380       -2.6174380
 C       -0.1885560        3.4779960        3.3108010
 O       -0.4444800        2.8783650        4.5478840
 O       -1.0871870        4.0335630        2.6387230
 C       -1.8487860        2.9059710        5.0189630
 H       -2.1996490        3.9415730        5.1267900
 H       -2.4947150        2.3705700        4.3100350
 H       -1.8235710        2.3950310        5.9872080
 H        3.3924800        2.9512850        0.2872260
 H        4.3334580        3.2700270        4.5092210
 C       -1.1577710        0.7815200       -3.1171000
 O       -1.2809990        0.5708540       -4.4815200
 O       -0.1703680        0.3550570       -2.4690320
 C       -0.2122970       -0.2364750       -5.1254570
 H       -0.4716420       -0.2345170       -6.1891780
 H        0.7695720        0.2221900       -4.9510090
 H       -0.2142040       -1.2563180       -4.7174240
