67
Mol_000309_2D_DFT last geometry from G09 out file
 Ru        0.1342350       -0.0705270        0.3816990
 C       -1.2690810       -0.9041670       -0.4113710
 Cl       -0.6105910       -0.1037790        2.6791760
 Cl        1.7690290       -0.3850710       -1.3966190
 H       -2.1008280       -0.4898770       -0.9840530
 H       -1.2527460       -2.0102870       -0.2917370
 C       -0.1070100        1.8378350        0.0684960
 N        0.8220170        2.7268650        0.5917350
 N       -1.0187550        2.5675860       -0.6761490
 C        0.6247260        4.1364650        0.1176670
 C        1.8778390        2.3999260        1.5408000
 C       -0.6675160        4.0381550       -0.7588360
 H        0.4207620        4.7648450        0.9969580
 H       -0.4143980        4.2522970       -1.8061910
 C        1.7665040        2.7487830        2.9207270
 C        3.0552240        1.7743570        1.0697910
 C        2.8583770        2.4442200        3.7675620
 C        4.0372990        1.8056930        3.3139960
 H        2.7733810        2.6979470        4.8262800
 C        4.1168490        1.4730960        1.9425440
 H        5.0046470        0.9757900        1.5484730
 C       -2.1450920        2.0267940       -1.4112310
 C       -2.0890560        1.8063410       -2.8173020
 C       -3.3332930        1.7308710       -0.7017200
 C       -3.2612660        1.3265260       -3.4575250
 C       -4.4638970        1.0522020       -2.7664490
 H       -3.2224930        1.1506380       -4.5342820
 C       -4.4759450        1.2503200       -1.3629500
 H       -5.3740750        1.0231790       -0.7856920
 C       -0.8334950        2.0357550       -3.6405280
 H        0.0661300        1.7071170       -3.1082920
 H       -0.7057910        3.0994490       -3.9002250
 H       -0.8845970        1.4790740       -4.5857630
 H       -3.3419230        1.8505980        0.3800460
 C        1.8994190        4.7404590       -0.5678600
 C        1.7636850        6.2751820       -0.7472230
 C        2.3224730        4.0611350       -1.8927420
 H        2.7146550        4.5790700        0.1570590
 H        0.9964270        6.5403170       -1.4907900
 H        2.7170050        6.6976980       -1.0986930
 H        1.5094390        6.7771730        0.1998410
 H        3.3309700        4.3986190       -2.1764810
 H        1.6514660        4.3214810       -2.7248230
 H        2.3499230        2.9680930       -1.8076130
 C       -5.7008710        0.5584020       -3.4983400
 H       -5.4700160        0.2517910       -4.5275910
 H       -6.4702770        1.3466940       -3.5519560
 H       -6.1568890       -0.3013340       -2.9839110
 C       -1.7616730        5.0942170       -0.3537280
 C       -2.4615860        4.8588950        1.0067290
 C       -2.7926390        5.3786480       -1.4774740
 H       -1.1720340        6.0224300       -0.2479330
 H       -3.0212440        5.7622030        1.2944430
 H       -1.7501010        4.6432120        1.8133440
 H       -3.1783080        4.0313900        0.9605600
 H       -2.2935820        5.6058290       -2.4330200
 H       -3.4038780        6.2546600       -1.2102350
 H       -3.4740610        4.5364480       -1.6440960
 C        0.5333470        3.4052640        3.5150790
 H       -0.3841800        2.9732130        3.1011040
 H        0.5194830        4.4928210        3.3331340
 H        0.5069840        3.2591990        4.6027600
 H        3.1317760        1.5080060        0.0198830
 C        5.1575560        1.4558270        4.2789610
 H        5.2644570        2.2108100        5.0717350
 H        6.1236040        1.3647880        3.7625670
 H        4.9586980        0.4901410        4.7738760
