73
Mol_000119_2D_DFT last geometry from G09 out file
 Ru        0.4346100       -0.3179540        0.8222890
 C       -0.7859680       -1.2002660       -0.1929260
 Cl       -0.7167120        0.0818520        2.9187520
 Cl        2.3660170       -1.0320320       -0.4613130
 H       -1.3233240       -0.8479450       -1.0785040
 H       -0.9345120       -2.2675200        0.0790100
 C        0.2808010        1.5291920        0.2168610
 N        1.3072010        2.4224670        0.4805750
 N       -0.7283980        2.2207950       -0.4359510
 C        2.4331830        2.1234980        1.3471470
 C        1.1250150        3.7508370       -0.2533740
 C        3.7107230        1.8162240        0.8209300
 C        2.2521090        2.1687500        2.7512120
 C        4.7928440        1.5729410        1.6891670
 C        4.6122610        1.6223210        3.0887590
 H        5.7686400        1.3205220        1.2713460
 C        3.3364450        1.9123580        3.6163360
 H        3.1785250        1.9347050        4.6956850
 C       -0.4843770        3.7535340       -0.3723920
 C       -1.9885350        1.6385280       -0.8527470
 C       -2.9237380        1.1731910        0.1048720
 C       -2.2924850        1.5121370       -2.2297180
 C       -4.1465480        0.6097480       -0.3119870
 C       -4.4568780        0.5061600       -1.6857690
 H       -4.8510280        0.2479640        0.4387380
 C       -3.5225290        0.9570060       -2.6426410
 H       -3.7406060        0.8663550       -3.7081490
 H       -5.4055810        0.0717160       -2.0050290
 C        1.9016830        3.6982180       -1.6231550
 C        1.7425920        2.4991190       -2.5925610
 H        2.9686070        3.7477800       -1.3700650
 H        1.6898990        4.6319900       -2.1662680
 C        2.7167990        2.6114410       -3.7891160
 H        0.7188120        2.4298770       -2.9819530
 H        1.9353440        1.5558510       -2.0665250
 H        3.7664580        2.6278410       -3.4538640
 H        2.6008000        1.7503250       -4.4651810
 H        2.5399180        3.5271110       -4.3772420
 C        1.6456790        4.9711230        0.5964220
 C        3.1351750        5.4043970        0.5259400
 H        1.4013560        4.7835890        1.6498790
 H        1.0586970        5.8498400        0.2987040
 C        3.4251270        6.5490810        1.5252310
 H        3.3857810        5.7554130       -0.4871320
 H        3.8053340        4.5649070        0.7479980
 H        3.2476900        6.2287450        2.5639650
 H        4.4744900        6.8744350        1.4516860
 H        2.7890640        7.4282260        1.3310230
 C       -1.0446380        4.4687900       -1.6386720
 C       -0.8893550        6.0115650       -1.7299690
 H       -2.1174800        4.2435100       -1.6998810
 H       -0.5946640        4.0323520       -2.5369490
 C       -1.6042980        6.5778530       -2.9789680
 H        0.1722680        6.2947400       -1.7787060
 H       -1.3020360        6.4994230       -0.8348890
 H       -2.6843310        6.3624750       -2.9558110
 H       -1.4823460        7.6704960       -3.0400940
 H       -1.1973430        6.1444100       -3.9065010
 C       -1.1688240        4.2953700        0.9465660
 C       -2.7039540        4.5283650        0.9649260
 H       -0.7163400        5.2599820        1.2049470
 H       -0.9099050        3.6068190        1.7637100
 C       -3.1862670        4.9502860        2.3731150
 H       -3.2514470        3.6310410        0.6598230
 H       -2.9788980        5.3194310        0.2506290
 H       -2.9856560        4.1634260        3.1172730
 H       -2.6834650        5.8697480        2.7149450
 H       -4.2704980        5.1432330        2.3744980
 H        3.8481040        1.7254310       -0.2525530
 H        1.2664100        2.3789630        3.1601890
 H        5.4508790        1.4221850        3.7577770
 H       -2.6800420        1.2253190        1.1628880
 H       -1.5658350        1.8242940       -2.9762580
