55
Mol_000120_2D_DFT last geometry from G09 out file
 Ru        0.0194170       -0.0496430        0.1725220
 C       -1.3111180       -0.6172160       -0.9273050
 Cl       -0.9232320       -0.1260970        2.3816080
 Cl        1.8720390       -0.4771170       -1.3164030
 H       -1.8846980       -0.0266180       -1.6500030
 H       -1.5173850       -1.7076720       -0.9092780
 C       -0.1058140        1.8629480       -0.0562020
 N        0.9080850        2.7190690        0.3651910
 N       -1.0733960        2.6605320       -0.6652550
 C        2.0021230        2.3849540        1.2399320
 C        0.6064790        4.1558420        0.0976150
 C        3.2421560        1.9083780        0.7578610
 C        1.9022110        2.6135720        2.6315820
 C        4.3039860        1.6355340        1.6399490
 C        4.1787020        1.8445660        3.0379060
 H        5.2346990        1.2490670        1.2263860
 C        2.9493640        2.3510720        3.5235880
 H        2.7927610        2.5354540        4.5860000
 C       -0.5888700        4.0638050       -0.8709740
 H       -1.3850550        4.7781210       -0.6270740
 H       -0.2888920        4.2059940       -1.9181770
 C       -2.4466570        2.3544470       -0.9126740
 C       -3.0388030        2.5920790       -2.1754230
 C       -3.3055530        1.8847880        0.1104490
 C       -4.3959600        2.3805600       -2.4408810
 C       -5.2463120        1.8914950       -1.4178920
 H       -4.7653640        2.5878630       -3.4439500
 C       -4.6695100        1.6466980       -0.1458020
 H       -5.2957510        1.2726740        0.6651930
 F       -2.2243020        3.0611280       -3.2305120
 H       -2.8894060        1.6896490        1.0964980
 H        0.3526060        4.6716550        1.0359220
 H        1.4769630        4.6463840       -0.3574300
 C       -6.7373270        1.6334540       -1.6682930
 C       -6.9661770        0.5182730       -2.7270080
 C       -7.5029150        2.9336130       -2.0417860
 H       -7.1636850        1.2690310       -0.7188240
 H       -6.5907820        0.8149900       -3.7178980
 H       -8.0409890        0.3025800       -2.8275660
 H       -6.4575240       -0.4136820       -2.4384490
 H       -8.5799290        2.7273230       -2.1385250
 H       -7.1554940        3.3493620       -2.9995260
 H       -7.3724290        3.7073340       -1.2704060
 H        3.3493710        1.7242490       -0.3079640
 F        0.7055780        3.1428420        3.1491360
 C        5.3193910        1.5290500        4.0141560
 C        6.5959640        2.3638440        3.7168550
 C        5.6326800        0.0063690        4.0536530
 H        4.9753160        1.8134870        5.0226430
 H        7.0266620        2.1143860        2.7358120
 H        7.3653270        2.1656280        4.4788860
 H        6.3777620        3.4424150        3.7258740
 H        6.0104480       -0.3547940        3.0856920
 H        4.7338980       -0.5771450        4.3024770
 H        6.3995410       -0.2053670        4.8146950
