79
Mol_000122_2D_DFT last geometry from G09 out file
 Ru        0.1553370        0.2029780        0.4477400
 C       -1.1194310       -0.7993550       -0.3668810
 Cl       -0.7097830        0.3247040        2.7082850
 Cl        1.8815000       -0.1262250       -1.2315610
 H       -1.9125200       -0.5019700       -1.0560890
 H       -1.0294850       -1.8890640       -0.1609050
 C       -0.2674980        2.0548710        0.0285700
 N        0.6394890        3.0499730        0.3587610
 N       -1.3696910        2.6665560       -0.5371770
 C        1.8200050        2.8213680        1.1740180
 C        0.2695330        4.3913640       -0.2960540
 C        3.0723130        2.5028680        0.5974350
 C        1.7267640        2.9430510        2.5813000
 C        4.2028200        2.3188610        1.4165140
 C        4.1249290        2.4398470        2.8261810
 H        5.1552760        2.0619930        0.9488930
 C        2.8633010        2.7550960        3.3900070
 H        2.7624940        2.8430640        4.4734850
 C       -1.3301540        4.2001870       -0.3224690
 C       -2.5171830        1.9735880       -1.0730630
 C       -3.5638220        1.5266890       -0.2317040
 C       -2.6085540        1.7344070       -2.4638190
 C       -4.6887670        0.8811880       -0.7816520
 C       -4.8037120        0.6509750       -2.1762220
 H       -5.4834500        0.5436270       -0.1132600
 C       -3.7369930        1.0854710       -3.0037010
 H       -3.7855020        0.9125070       -4.0806950
 C       -6.0056680       -0.0813450       -2.7583200
 C       -5.8200160       -1.6274880       -2.8099890
 H       -6.2058960        0.2809090       -3.7799290
 H       -6.9047890        0.1425840       -2.1613740
 C       -7.0445780       -2.3596070       -3.4003490
 H       -5.6213230       -2.0014960       -1.7918180
 H       -4.9241580       -1.8640390       -3.4080110
 H       -7.2488820       -2.0322410       -4.4324260
 H       -6.8787510       -3.4479470       -3.4214300
 H       -7.9511070       -2.1708830       -2.8031760
 C        0.9671140        4.3622610       -1.7140070
 C        0.9508200        5.6048710       -2.6442390
 H        2.0198600        4.1323130       -1.5053050
 H        0.5836490        3.4937840       -2.2686370
 H        1.1652580        6.5420590       -2.1151140
 H        0.0026970        5.7361480       -3.1774970
 H        1.7338440        5.4787040       -3.4090780
 C        0.7148600        5.6239410        0.5496490
 C        2.2024350        6.0586370        0.5568560
 H        0.1215950        6.4797900        0.1956980
 H        0.4183320        5.4537400        1.5904820
 H        2.5909290        6.2887910       -0.4423820
 H        2.8588640        5.3093750        1.0087910
 H        2.2907790        6.9775270        1.1589260
 C       -2.0135190        4.9916150       -1.4805970
 C       -3.5593530        5.0840130       -1.5491120
 H       -1.6263550        6.0196270       -1.4283890
 H       -1.6617340        4.5814960       -2.4340670
 H       -3.8298740        5.7112830       -2.4140710
 H       -4.0022050        5.5512310       -0.6615630
 H       -4.0385680        4.1109730       -1.6910990
 C       -2.0533200        4.4410250        1.0610830
 C       -2.3341290        5.8769580        1.5819680
 H       -3.0273500        3.9452990        0.9612120
 H       -1.5134880        3.8782270        1.8354050
 H       -2.6962170        6.5570540        0.8006800
 H       -1.4614250        6.3462990        2.0489830
 H       -3.1191790        5.8220960        2.3530870
 H        3.1547070        2.3633950       -0.4763990
 H        0.7630500        3.1547180        3.0395940
 C        5.3391740        2.1820170        3.7078660
 C        5.4770990        0.6893880        4.1335550
 H        5.2809870        2.8013530        4.6180670
 H        6.2585300        2.4810700        3.1781250
 C        6.7086130        0.4311200        5.0283300
 H        5.5372520        0.0611180        3.2295630
 H        4.5615810        0.3798130        4.6641310
 H        6.6599210        1.0200840        5.9584940
 H        6.7735210       -0.6318230        5.3086710
 H        7.6441580        0.6983830        4.5108990
 H       -3.4803890        1.6518570        0.8462230
 H       -1.7914720        2.0430020       -3.1155950
