81
M00000060_2D_DFT last geometry from G09 out file
Ru       -0.4500900        0.0562980        0.3857200
C       -1.5959860       -0.6765960       -0.8183330
Cl       -1.8431500        0.1161170        2.3477490
Cl        1.6300280       -0.5868030       -0.6541360
H       -2.1354310       -0.2077190       -1.6438420
H       -1.7375620       -1.7721690       -0.6978740
C       -0.4862520        1.9662470        0.0240950
N        0.3913060        2.8414270        0.6752190
N       -1.3191720        2.7431600       -0.7649780
C        0.1862830        4.2819620        0.2921820
C        1.6681430        2.4682930        1.2481310
C       -0.0349670        5.2267030        1.5095460
C       -1.0201760        4.2175620       -0.6915790
H        1.0865400        4.6187310       -0.2406500
C       -1.4330070        5.1254220        2.0831800
H        0.7349970        5.0299510        2.2650790
H        0.1507930        6.2558270        1.1481910
C       -2.4863990        5.0578440        1.2346610
H       -1.5682030        5.0855770        3.1651500
C       -2.2299070        5.0996950       -0.2571070
H       -3.5095150        4.9488610        1.5961870
H       -3.1222480        4.8230820       -0.8307120
H       -1.9810330        6.1331480       -0.5640080
H       -0.7111870        4.5433840       -1.6954230
C        1.8856890        2.1598670        2.6230130
C        2.7992190        2.4707730        0.3912150
C        3.2006150        1.8011750        3.0233520
C        4.3062740        1.7833910        2.1468480
H        3.3597290        1.5198390        4.0647560
C        4.0913870        2.1452970        0.7953100
H        4.8965850        2.1391310        0.0618550
C       -2.2827060        2.2929330       -1.7322760
C       -1.9223670        2.0382070       -3.0911530
C       -3.6430780        2.1412630       -1.3722540
C       -2.9405620        1.6404250       -3.9941930
C       -4.2952730        1.4928250       -3.6167080
H       -2.6575580        1.4214360       -5.0250090
C       -4.6423820        1.7486520       -2.2692300
H       -5.6643720        1.6364010       -1.9086560
C        0.7753980        2.1816540        3.6686810
C        1.0322740        3.1407750        4.8660670
H       -0.1797190        2.4345400        3.1997350
H        0.6486450        1.1622590        4.0669460
C       -0.1060910        3.0918540        5.9143160
H        1.9822840        2.8841640        5.3627310
H        1.1475470        4.1753060        4.5004010
C        0.1217700        4.0439450        7.1092060
H       -0.2108560        2.0577730        6.2859410
H       -1.0652490        3.3372070        5.4270240
H       -0.7062050        3.9766600        7.8324500
H        0.1927020        5.0932190        6.7792850
H        1.0532860        3.7989140        7.6447290
F        2.6063500        2.8174030       -0.9646350
C        5.6990870        1.4066910        2.6363840
C        6.5735690        2.6345260        3.0119470
H        6.2190360        0.8255120        1.8580870
H        5.6139530        0.7489040        3.5152220
H        6.1083540        3.2224870        3.8175030
H        6.7180090        3.3015620        2.1487760
H        7.5664290        2.3074700        3.3580640
C       -0.4828060        2.1288310       -3.5895370
C       -0.2142360        3.3013150       -4.5778080
H        0.2146040        2.2014370       -2.7483900
H       -0.2354280        1.1855260       -4.1043480
C        1.2593830        3.3485240       -5.0492400
H       -0.8749030        3.2081490       -5.4561020
H       -0.4743340        4.2609740       -4.0991780
C        1.5512820        4.5080720       -6.0269720
H        1.5157210        2.3898760       -5.5331590
H        1.9208580        3.4330310       -4.1698460
H        1.3441310        5.4860580       -5.5630660
H        0.9332840        4.4318710       -6.9362020
H        2.6071900        4.5045480       -6.3398570
F       -4.0259710        2.3807220       -0.0436850
C       -5.3587470        1.0872440       -4.6298130
C       -6.0576370        2.3011440       -5.3021730
H       -6.1240000        0.4668200       -4.1369770
H       -4.9025870        0.4621310       -5.4134400
H       -5.3329570        2.9292970       -5.8416210
H       -6.5628480        2.9336940       -4.5570450
H       -6.8138800        1.9562910       -6.0242170
