83
M00000463_2D_DFT last geometry from G09 out file
 Ru        0.2294060        0.1461000       -0.5067720
 C       -1.3053600       -0.6406360       -1.0661680
 Cl        0.1640410       -0.4433720        1.8319480
 Cl        1.2799080        0.2091620       -2.6938230
 H       -2.2581090       -0.2064640       -1.3704950
 H       -1.2167090       -1.7462560       -1.1495970
 C       -0.0565170        2.0689700       -0.3492270
 N        0.9956780        2.8838780        0.0967160
 N       -1.1047430        2.8896720       -0.7295840
 C        0.7395220        4.3641010       -0.1917690
 C        1.9403600        2.4834560        1.1416400
 C       -0.7695120        4.3839550       -0.6542990
 H        0.8370010        4.9007750        0.7596960
 H       -0.8091210        4.7531920       -1.6855150
 C        1.5796290        2.7734620        2.4872490
 C        3.2121130        1.8583610        0.9422750
 C        2.3773360        2.5390780        3.5993670
 C        3.6456740        1.9471260        3.3976630
 H        2.0293050        2.7833090        4.6006320
 C        4.0244500        1.6139520        2.0802890
 H        4.9921260        1.1502240        1.9111060
 C       -2.2746130        2.4276370       -1.4450240
 C       -2.3366250        2.6176110       -2.8493420
 C       -3.4077860        1.8252860       -0.8079300
 C       -3.4308360        2.2768060       -3.6403230
 C       -4.5605360        1.7018910       -3.0124740
 H       -3.4184320        2.4427530       -4.7155850
 C       -4.5216140        1.4841770       -1.6144310
 H       -5.3815850        1.0355590       -1.1264950
 F       -1.2311650        3.1943780       -3.4965550
 C       -3.4584000        1.5719340        0.7012790
 C       -4.2392900        0.3212680        1.1710260
 H       -3.9180650        2.4530900        1.1791400
 H       -2.4400820        1.5051290        1.0953180
 H       -4.1180490        0.2150070        2.2590730
 H       -3.8573280       -0.5992370        0.7080940
 H       -5.3187940        0.3885640        0.9703100
 C        1.8004150        5.0091730       -1.2059620
 C        3.1753040        5.1500730       -0.4831910
 C        1.9577430        4.1876550       -2.5146940
 C        1.3972590        6.4579120       -1.6222770
 H        3.0804550        5.7283320        0.4496210
 H        3.8799400        5.6893240       -1.1333930
 H        3.6288640        4.1888020       -0.2387800
 H        1.0477250        4.2134090       -3.1262590
 H        2.1962540        3.1387870       -2.3320190
 H        2.7700580        4.6183610       -3.1192690
 H        2.1655060        6.8430440       -2.3087520
 H        1.3496020        7.1447230       -0.7680670
 H        0.4425610        6.4989220       -2.1604090
 C       -5.7533990        1.3464340       -3.8725810
 C       -6.9687470        0.6793590       -3.2327940
 O       -5.7398320        1.6010740       -5.1078660
 H       -7.4126240        1.3202350       -2.4549440
 H       -7.7195650        0.4912660       -4.0080570
 H       -6.6966510       -0.2764010       -2.7585670
 C       -1.8019360        5.2948900        0.1704490
 C       -2.0346050        4.8396570        1.6372960
 C       -1.2948420        6.7697060        0.2360020
 C       -3.1698340        5.3608950       -0.5829830
 H       -2.1737030        3.7617390        1.7301150
 H       -2.9326630        5.3372800        2.0336980
 H       -1.1963310        5.1180450        2.2848920
 H       -2.0149900        7.3547620        0.8267350
 H       -1.2270600        7.2366910       -0.7544560
 H       -0.3230380        6.8617900        0.7350500
 H       -3.7852760        6.1595890       -0.1433440
 H       -3.7461390        4.4350980       -0.5112490
 H       -3.0377760        5.6006690       -1.6491200
 F        0.3116720        3.3286310        2.7250990
 C        3.7778450        1.4651270       -0.4221280
 C        4.3679440        0.0334410       -0.5063590
 H        4.5784630        2.1778120       -0.6863580
 H        3.0132050        1.5631910       -1.1932460
 H        4.6445270       -0.1809870       -1.5485140
 H        3.6366770       -0.7243030       -0.1939970
 H        5.2711860       -0.0897340        0.1087870
 C        4.5213420        1.6942940        4.6034780
 C        5.8410780        0.9465640        4.4286310
 O        4.1587980        2.0950600        5.7436110
 H        6.5231370        1.4917630        3.7574110
 H        6.3204560        0.8373370        5.4076780
 H        5.6770170       -0.0517910        3.9945700
