101
M00000464_2D_DFT last geometry from G09 out file
 Ru       -0.2148800        0.9630240       -0.2733390
 C        1.2830560        0.7299080       -1.2735860
 Cl       -1.6515150       -0.1000570       -1.9331970
 Cl        0.2774990        0.5811130        2.0469030
 H        1.8032260        1.5087310       -1.8395520
 H        1.6529530       -0.3036260       -1.4086930
 C       -0.1984740        2.9457370       -0.3319790
 N        0.8030230        3.8213750        0.1297460
 N       -1.1895670        3.6946950       -0.9521090
 C        0.5499460        5.2565990       -0.3481500
 C        1.6656970        3.6243750        1.3233090
 C       -0.8730270        5.1896460       -1.0230780
 H        0.5037840        5.8717190        0.5528540
 H       -0.7612560        5.3931560       -2.0926120
 C        1.2033680        4.0931680        2.6074570
 C        2.9968510        3.0819240        1.2485780
 C        2.0375170        4.0016720        3.7451950
 C        3.3321320        3.4759330        3.6661200
 H        1.6552980        4.3441500        4.7063070
 C        3.7903740        3.0296830        2.4230830
 H        4.8047450        2.6405720        2.3458430
 C       -2.3630160        3.1718630       -1.6564180
 C       -2.4504710        3.3236630       -3.0872870
 C       -3.4766830        2.6261820       -0.9343150
 C       -3.6722630        3.0411470       -3.7406580
 C       -4.7906370        2.5902360       -3.0220180
 H       -3.7411690        3.1564080       -4.8210420
 C       -4.6760320        2.3663880       -1.6436050
 H       -5.5364590        1.9849310       -1.0946020
 N       -1.3101770        3.7605490       -3.8701920
 C       -0.3807310        2.6619640       -4.2454540
 C       -1.5969440        4.6447370       -5.0231370
 H       -0.8100390        2.0084050       -5.0321620
 H       -0.1681380        2.0367240       -3.3779460
 H        0.5584450        3.0877570       -4.6276270
 H       -2.3093590        5.4271190       -4.7347630
 H       -2.0024260        4.1147280       -5.9101850
 H       -0.6591200        5.1289700       -5.3376260
 C       -3.5025610        2.3281140        0.5706070
 C       -3.8909470        0.8692950        0.9570920
 H       -2.5456740        2.5796270        1.0359050
 H       -4.2525980        2.9875310        1.0399250
 C       -4.0489460        0.6816910        2.4853590
 H       -4.8394360        0.5932990        0.4702110
 H       -3.1416260        0.1641550        0.5746890
 C       -4.4436190       -0.7602430        2.8753580
 H       -4.8136040        1.3841110        2.8649700
 H       -3.1039000        0.9417650        2.9891410
 H       -5.3998050       -1.0544110        2.4128000
 H       -4.5532860       -0.8610030        3.9669050
 H       -3.6771880       -1.4803970        2.5483360
 C        1.7118850        5.8711850       -1.2728460
 C        2.9851970        6.1538600       -0.4187740
 C        2.0516540        4.9615700       -2.4831340
 C        1.3099920        7.2585430       -1.8663660
 H        3.7345170        6.6761290       -1.0331490
 H        3.4511720        5.2505960       -0.0279290
 H        2.7501730        6.8062570        0.4366380
 H        2.3166750        3.9472740       -2.1788730
 H        2.9059220        5.3805190       -3.0363040
 H        1.2038100        4.8945740       -3.1733090
 H        0.4086480        7.2156790       -2.4898180
 H        2.1304660        7.6075420       -2.5113960
 H        1.1653560        8.0159780       -1.0867500
 H       -5.7305620        2.3861760       -3.5378590
 C       -2.0231600        6.2004610       -0.4974730
 C       -2.7791800        5.6716920        0.7481560
 C       -1.4542110        7.6069930       -0.1243760
 C       -3.0565390        6.4636160       -1.6384860
 H       -3.3539260        6.4893310        1.2090980
 H       -2.0817260        5.2718760        1.4857620
 H       -3.4916660        4.8936270        0.4764350
 H       -1.0316120        8.1305440       -0.9868130
 H       -0.7010100        7.5752840        0.6714290
 H       -2.2866550        8.2228650        0.2469010
 H       -3.5975080        5.5602660       -1.9330130
 H       -2.5709060        6.8833730       -2.5329720
 H       -3.8018550        7.1977520       -1.2954240
 N       -0.1239510        4.6785000        2.8117120
 C       -1.0369190        3.7815720        3.5753020
 C       -0.0864780        6.0394480        3.4121870
 H       -1.0281840        2.7831130        3.1334860
 H       -2.0589530        4.1856470        3.5388780
 H       -0.7488040        3.6841730        4.6428580
 H        0.6291900        6.6730770        2.8723050
 H        0.1950500        6.0511950        4.4854640
 H       -1.0843570        6.4937330        3.3306930
 C        3.7232980        2.6105000       -0.0140240
 C        4.3172460        1.1740590        0.0550580
 H        3.0707780        2.6862210       -0.8809040
 H        4.5643100        3.3016730       -0.2023400
 C        5.0851780        0.7806850       -1.2305310
 H        5.0112220        1.0935130        0.9059360
 H        3.5124030        0.4518420        0.2520660
 C        5.6963880       -0.6369390       -1.1628350
 H        5.8912450        1.5144510       -1.4118250
 H        4.4128950        0.8421420       -2.1037450
 H        4.9170850       -1.4012160       -1.0136630
 H        6.4111770       -0.7239850       -0.3289160
 H        6.2341690       -0.8835710       -2.0919110
 H        3.9683200        3.4169000        4.5505310
