73
Mol_000228_2D_DFT last geometry from G09 out file
 Ru       -0.5743310        0.1860180        1.0583290
 C       -1.4360980       -0.7625210       -0.2703310
 Cl       -2.6277320        0.5276570        2.3518970
 Cl        1.5662670       -0.8893610        0.5618910
 H       -1.6648000       -0.4718750       -1.3017330
 H       -1.7662430       -1.7885010       -0.0067000
 C       -0.3303990        1.8399390        0.2064750
 N        0.7448810        2.7356420        0.5326990
 N       -1.1461190        2.5436910       -0.7190930
 C        1.9247110        2.4237650        1.3191660
 C        0.5768540        4.0180120       -0.0741500
 C        3.1944150        2.8117810        0.8386440
 C        1.8348830        1.7199120        2.5521490
 C        4.3610130        2.5349790        1.5675660
 C        4.2993280        1.8334880        2.7950260
 H        5.3241390        2.8228700        1.1480580
 C        3.0206080        1.4406710        3.2599370
 H        2.9565770        0.9198960        4.2106800
 C       -0.8486220        3.9450730       -0.7131460
 C       -2.3168180        2.0813220       -1.4513130
 C       -3.5521900        2.0583060       -0.7700210
 C       -2.2530870        1.7946880       -2.8629090
 C       -4.7517530        1.7590540       -1.4300110
 C       -4.7382780        1.4807310       -2.8224090
 H       -5.6798650        1.7188760       -0.8629330
 C       -3.4992880        1.4999300       -3.4991220
 H       -3.4910250        1.2829280       -4.5639080
 C       -6.0020790        1.1583360       -3.5557250
 C       -6.0383250        0.1547740       -4.5613610
 C       -7.2082150        1.8505380       -3.2628290
 C       -7.2319570       -0.1433650       -5.2493480
 H       -5.1375570       -0.4179310       -4.7853850
 C       -8.4210030        0.5562830       -4.9493220
 H       -7.2357830       -0.9263740       -6.0099900
 C       -8.4018940        1.5551190       -3.9515940
 H       -9.3455920        0.3259280       -5.4814360
 H       -9.3125850        2.1082020       -3.7143680
 H       -7.2065790        2.6416760       -2.5124730
 F        1.5378360        4.3102260       -1.1138820
 F        0.7277690        5.0891220        0.8417860
 F       -0.9140550        4.5521530       -1.9813550
 F       -1.7844550        4.6960700        0.0881080
 H        3.2821460        3.3066200       -0.1230100
 N        0.5202890        1.3014920        3.0458900
 C        0.5447960        0.1842150        4.0477140
 C       -0.2202130        2.4814890        3.6342480
 H       -0.4898980       -0.1353360        4.2152780
 H        0.9693330        0.4970810        5.0176300
 H        1.1230060       -0.6569080        3.6497470
 H       -1.2299410        2.1657660        3.9078400
 H       -0.2925380        3.2917550        2.9044220
 H        0.3134680        2.8560410        4.5247300
 C        5.5335150        1.5130600        3.5732080
 C        5.6842040        0.2606680        4.2278090
 C        6.5942300        2.4530520        3.6770820
 C        6.8502470       -0.0397090        4.9602500
 H        4.9038080       -0.4954860        4.1338960
 C        7.8944120        0.9058490        5.0569060
 H        6.9478120       -1.0131050        5.4443190
 C        7.7599690        2.1539340        4.4104730
 H        8.7973340        0.6735460        5.6241070
 H        8.5570770        2.8960290        4.4835890
 H        6.4959730        3.4321770        3.2067520
 H       -3.5611380        2.2731610        0.2949670
 N       -1.0844070        1.8357700       -3.6412490
 C        0.2453450        1.3861420       -3.1932960
 C       -1.1564730        2.1608340       -5.0739100
 H        0.1973720        0.8662540       -2.2364660
 H        0.9583260        2.2231650       -3.1067560
 H        0.6552650        0.6699960       -3.9262910
 H       -1.2887600        1.2692980       -5.7175560
 H       -0.2183600        2.6520840       -5.3729240
 H       -1.9749540        2.8638380       -5.2731660
