47
M00000003_2D_DFT last geometry from G09 out file
 Ru        0.2802330        0.0772500        0.0961160
 C       -0.9105580       -0.6251380       -1.0830160
 Cl       -0.7905990       -0.2628560        2.2462150
 Cl        2.2238620        0.0568420       -1.3276030
 H       -1.5788350       -0.1020180       -1.7733040
 H       -0.9081590       -1.7340530       -1.1436130
 C       -0.0827070        1.9742420       -0.0406720
 N        0.8758240        2.9171990        0.3257220
 N       -1.1946510        2.6820880       -0.4886000
 C        0.4931600        4.2805150       -0.1129430
 C        2.1347880        2.6836820        0.9792670
 C       -1.0452340        4.1825240       -0.2676750
 H        0.9733520        4.5228740       -1.0752670
 H        0.7992420        5.0213690        0.6337440
 C       -1.8100940        4.6922950        0.9970600
 C       -1.5906060        5.1110510       -1.3828560
 C       -1.9394710        6.2329270        0.8022860
 H       -1.2945830        4.4145380        1.9267600
 H       -2.8047950        4.2280950        1.0238600
 C       -1.6284670        6.5072080       -0.7089230
 H       -2.9507700        6.5716140        1.0697900
 H       -1.2411400        6.7822170        1.4504360
 H       -0.6574190        7.0144830       -0.8162210
 H       -2.3802370        7.1588580       -1.1766350
 H       -2.6104410        4.8058430       -1.6515630
 H       -0.9792290        5.0854110       -2.2956340
 C        3.3102280        3.3010130        0.4861770
 C        2.1992030        1.8906320        2.1501680
 C        4.5372780        3.1098200        1.1487560
 C        4.6104120        2.2961250        2.3011630
 H        5.4394100        3.5796510        0.7532010
 C        3.4373040        1.6878400        2.7938720
 H        3.4750890        1.0645180        3.6887880
 C       -2.4846050        2.1234510       -0.8286020
 C       -2.9404760        2.1794720       -2.1681990
 C       -3.3098910        1.5520120        0.1690060
 C       -4.2148350        1.6779790       -2.5050590
 C       -5.0395650        1.1097350       -1.5091430
 H       -4.5549980        1.7209220       -3.5410250
 C       -4.5794310        1.0434180       -0.1759960
 H       -5.2029030        0.5917610        0.5971200
 H        3.2774480        3.8953230       -0.4264430
 H        1.2933140        1.4549360        2.5672080
 H        5.5653670        2.1410170        2.8052320
 H       -2.2898920        2.5897000       -2.9401720
 H       -2.9462240        1.4748800        1.1911130
 H       -6.0235020        0.7169370       -1.7703950
