67
M00000006_2D_DFT last geometry from G09 out file
 Ru        0.1747890       -0.0229220        0.1209690
 C       -1.2723030       -0.7502990       -0.7092520
 Cl       -0.4576970       -0.4921370        2.3852560
 Cl        1.7948640       -0.4152270       -1.6019520
 H       -2.1188530       -0.2417070       -1.1739210
 H       -1.2762420       -1.8595610       -0.7336380
 C       -0.1280920        1.8561470       -0.0251360
 N        0.7896620        2.7936680        0.5281780
 N       -1.1593310        2.6147170       -0.6282940
 C        1.9886500        2.4646280        1.3133790
 C        0.4196520        4.1501820        0.2664830
 C        3.2405680        2.3351270        0.6432540
 C        1.8669220        2.3771690        2.7310890
 C        4.3841710        1.9863550        1.4195500
 C        4.2612390        1.7748940        2.8241670
 C        3.0243400        2.0302290        3.4850860
 C       -0.9647980        4.0282440       -0.4628390
 C       -2.3401480        2.1562100       -1.3601730
 C       -3.5514610        1.9520460       -0.6396970
 C       -2.2461830        2.0042880       -2.7729180
 C       -4.7176860        1.5927290       -1.3759360
 C       -4.6458970        1.4115300       -2.7890840
 C       -3.4231320        1.6358650       -3.4889530
 F        1.3629650        4.8535250       -0.5480930
 F        0.3335950        4.9531010        1.4363320
 F       -0.9826850        4.7405000       -1.6924110
 F       -2.0021420        4.6478980        0.3018420
 C        3.3918950        2.5781440       -0.8503650
 H        2.4332810        2.6633860       -1.3617200
 H        3.9410940        1.7616750       -1.3327540
 H        3.9432170        3.5144740       -1.0320550
 C        0.5606090        2.6617130        3.4559010
 H       -0.2936030        2.7178920        2.7804400
 H        0.6199600        3.6242690        3.9885400
 H        0.3363700        1.8807080        4.1912210
 C        5.7424510        1.8417140        0.7403570
 H        6.5623850        2.1479520        1.4014560
 H        5.8145430        2.4546520       -0.1640060
 H        5.9342170        0.7973920        0.4382510
 C        5.4586890        1.2745050        3.6268170
 H        5.1434940        0.6244250        4.4519150
 H        6.0357430        2.1061150        4.0674670
 H        6.1485830        0.6921620        3.0062950
 C        2.9265110        1.9318460        5.0036410
 H        2.2131790        2.6579880        5.4107750
 H        3.8895050        2.1206910        5.4912010
 H        2.5837820        0.9317970        5.3214310
 C       -3.6108980        2.0702310        0.8766520
 H       -2.6209620        2.1489400        1.3282780
 H       -4.0991510        1.1915380        1.3206350
 H       -4.1813720        2.9593210        1.1857600
 C       -0.9284510        2.1956410       -3.5109170
 H       -0.7070760        1.3315310       -4.1527350
 H       -0.0817700        2.3123060       -2.8332750
 H       -0.9587690        3.0894260       -4.1524460
 C       -6.0475270        1.4054590       -0.6530800
 H       -6.8837610        1.8050860       -1.2414280
 H       -6.0640520        1.9134720        0.3159220
 H       -6.2637180        0.3394470       -0.4648020
 C       -5.8908230        0.9722320       -3.5528290
 H       -6.5143590        0.2950070       -2.9565780
 H       -5.6413100        0.4481930       -4.4815600
 H       -6.5213030        1.8362950       -3.8260820
 C       -3.3820410        1.4913440       -5.0070300
 H       -4.2543950        1.9654590       -5.4774250
 H       -3.3828480        0.4317810       -5.3153190
 H       -2.4918850        1.9523940       -5.4436370
