73
M00000025_2D_DFT last geometry from G09 out file
 Ru        0.2103370       -0.0491550        0.0936110
 C       -1.3404820       -0.8198180       -0.4556900
 Cl       -0.0465310       -0.3812070        2.4645770
 Cl        1.4884960       -0.4375050       -1.9155610
 H       -2.2563070       -0.3451990       -0.8119300
 H       -1.3300570       -1.9300850       -0.4260660
 C       -0.0973280        1.8517440       -0.0813280
 N        0.8685380        2.7759350        0.3644730
 N       -1.1445070        2.5838950       -0.6549120
 C        0.5099370        4.1767930        0.0358950
 C        1.9340200        2.5005540        1.3461970
 C       -0.8824010        4.0488800       -0.6545940
 H        0.4630740        4.7808350        0.9511350
 H       -0.8584750        4.4219920       -1.6870800
 C        3.2331840        2.1164010        0.9005370
 C        1.6451120        2.7054180        2.7287050
 C        4.2377950        1.8539310        1.8800410
 C        3.9464750        1.9952390        3.2667500
 C        2.6708530        2.4711660        3.6855810
 C       -2.2768760        2.0830020       -1.4393370
 C       -3.4946220        1.7597500       -0.7715410
 C       -2.1473110        2.0075380       -2.8562700
 C       -4.6167640        1.3655610       -1.5569380
 C       -4.5034270        1.2717600       -2.9753380
 C       -3.2816800        1.6133620       -3.6248570
 C        1.5263510        4.9268540       -0.8752260
 F        2.7648510        5.1232840       -0.2467880
 F        1.7682540        4.2862880       -2.1086920
 F        1.0364680        6.2169380       -1.1956420
 C       -1.9599330        4.9328210        0.0424560
 F       -3.1859750        4.9261900       -0.6427650
 F       -2.2249730        4.5789190        1.3813590
 F       -1.5333700        6.2820560        0.0726510
 C        3.5837610        2.0044770       -0.5735750
 H        2.7177550        2.1264120       -1.2204210
 H        4.0120400        1.0227730       -0.8102270
 H        4.3253440        2.7684170       -0.8534070
 C        0.2693960        3.1356800        3.2134780
 H       -0.4947330        3.0476860        2.4427540
 H        0.2724010        4.1781310        3.5745490
 H       -0.0604550        2.5042830        4.0472900
 C        5.6372750        1.4285720        1.4449030
 H        5.7825130        0.3413650        1.5675130
 H        6.4135420        1.9290300        2.0395140
 H        5.8361300        1.6609260        0.3953060
 C        4.9980650        1.6324510        4.3108070
 H        5.5698550        2.5173640        4.6409940
 H        5.7204730        0.9040760        3.9278610
 H        4.5399680        1.1904290        5.2042450
 C        2.3882830        2.7041380        5.1659220
 H        1.6639420        3.5118880        5.3228770
 H        3.2957370        2.9764220        5.7173640
 H        1.9715310        1.7998980        5.6428820
 C       -3.6017300        1.7791460        0.7474390
 H       -2.6341530        1.9205520        1.2291110
 H       -4.0111250        0.8307940        1.1235200
 H       -4.2688340        2.5816510        1.0957020
 C       -0.8272400        2.3033400       -3.5546670
 H       -0.5650000        1.4928580       -4.2473870
 H        0.0077290        2.3860660       -2.8595320
 H       -0.8768410        3.2326990       -4.1458650
 C       -5.9474820        1.0443210       -0.8832140
 H       -6.0027910        1.4397600        0.1349580
 H       -6.1203730       -0.0439460       -0.8188040
 H       -6.7914650        1.4714320       -1.4416650
 C       -5.6934260        0.7939430       -3.8011770
 H       -5.3749060        0.2713140       -4.7102810
 H       -6.3314930        1.6376360       -4.1175310
 H       -6.3297410        0.1018290       -3.2381600
 C       -3.1910900        1.5533520       -5.1463900
 H       -2.3572500        2.1445890       -5.5362930
 H       -4.1058110        1.9354420       -5.6186210
 H       -3.0485280        0.5187690       -5.5033840
