49
M00000002_2D_DFT last geometry from G09 out file
 Ru       -0.1437650       -0.2784000        0.0496530
 C        1.6653790       -0.4540550        0.0840470
 Cl       -0.4506550       -0.7253790       -2.2995180
 Cl       -0.8057370       -0.5356210        2.3690510
 H        2.4197450        0.3233890       -0.0825900
 H        2.0480030       -1.4875360        0.2179320
 C       -0.3167680        1.6446360       -0.0099530
 N        0.6140520        2.6536150        0.2100430
 N       -1.5056770        2.2657020       -0.3908650
 C        0.1180120        3.9592170       -0.3165870
 C        1.8528600        2.6207240        0.9370310
 C       -1.4205650        3.7752110       -0.3821870
 H        0.5372560        4.1470890       -1.3180570
 H        0.4312460        4.7672260        0.3488520
 H       -1.7948160        4.1437180       -1.3475070
 C        1.9276950        2.0490780        2.2318220
 C        2.9987970        3.2421240        0.3788660
 C        3.1450640        2.0806230        2.9411660
 C        4.2881140        2.6988060        2.3874340
 H        3.1933130        1.6287280        3.9332730
 C        4.2068520        3.2828140        1.1045170
 H        5.0832090        3.7598770        0.6624020
 C       -2.6703100        1.5614330       -0.8843630
 C       -3.1517800        1.8244330       -2.1880290
 C       -3.3360770        0.6165280       -0.0693420
 C       -4.2892920        1.1498290       -2.6692020
 C       -4.9494630        0.1960380       -1.8625590
 H       -4.6445470        1.3493560       -3.6815890
 C       -4.4637000       -0.0706660       -0.5662590
 H       -4.9611980       -0.8066290        0.0674620
 H       -2.6209410        2.5187940       -2.8389100
 H       -2.9896600        0.4281040        0.9451300
 C       -2.2485090        4.5249410        0.7435480
 C       -3.7768410        4.2877160        0.5562700
 C       -1.8366990        4.0839700        2.1747580
 C       -1.9955410        6.0556840        0.5648640
 H       -4.0660680        3.2516670        0.7607940
 H       -4.1076790        4.5372040       -0.4633530
 H       -4.3355750        4.9306780        1.2527490
 H       -0.7811720        4.2997200        2.3921310
 H       -2.0022730        3.0094380        2.3294650
 H       -2.4403620        4.6243710        2.9190450
 H       -2.2536590        6.3921200       -0.4522270
 H       -0.9544610        6.3465430        0.7644890
 H       -2.6269370        6.6186130        1.2674500
 H       -5.8232480       -0.3347390       -2.2433140
 H        1.0524710        1.5724790        2.6659270
 H        2.9540700        3.6743810       -0.6211420
 H        5.2246350        2.7266130        2.9462830
