67
M00000001_2D_DFT last geometry from G09 out file
 Ru       -0.0032420       -0.1151610        0.4134950
 C       -1.2919140       -0.8637760       -0.6243960
 Cl       -1.0695790       -0.3040200        2.5721520
 Cl        1.9086990       -0.5670820       -0.9906120
 H       -2.0059070       -0.3698180       -1.2874720
 H       -1.3427530       -1.9727110       -0.5755730
 C       -0.2336840        1.7981550        0.1158080
 N        0.6212950        2.7350060        0.6961660
 N       -1.1811970        2.5114770       -0.6090710
 C        0.2565670        4.1434750        0.3767450
 C        1.7896880        2.4879320        1.5305490
 C       -0.9897890        3.9906230       -0.5211610
 H        0.0451920        4.7004320        1.3008790
 H       -0.8420630        4.4119600       -1.5260520
 C        3.0727110        2.4126750        0.9137140
 C        1.6374870        2.4581580        2.9481510
 C        4.2080280        2.1477490        1.7311800
 C        4.0511320        1.9698140        3.1366430
 C        2.7822810        2.1822410        3.7510910
 C       -2.2886880        2.0515380       -1.4249410
 C       -3.5769120        1.9201500       -0.8301050
 C       -2.0765950        1.8520440       -2.8207130
 C       -4.6719650        1.5314420       -1.6553180
 C       -4.4701850        1.2859150       -3.0458650
 C       -3.1844260        1.4735620       -3.6345130
 H        1.0891220        4.6444600       -0.1374060
 H       -1.8842350        4.4593980       -0.0854890
 C        3.2485460        2.6356670       -0.5814440
 H        2.2908380        2.6878220       -1.1030090
 H        3.8129970        1.8182750       -1.0456750
 H        3.7979700        3.5731480       -0.7735690
 C        0.2949390        2.7501860        3.6033370
 H       -0.5004870        2.8763320        2.8663960
 H        0.3517550        3.6696640        4.2095900
 H       -0.0211770        1.9323300        4.2620270
 C        5.5893900        2.0344650        1.0947720
 H        6.3851350        2.3529320        1.7791120
 H        5.6756660        2.6484830        0.1912120
 H        5.8075120        0.9940150        0.7967710
 C        5.2519830        1.5612950        3.9850930
 H        5.9089240        0.8706950        3.4415680
 H        4.9464620        1.0546070        4.9068430
 H        5.8654690        2.4313740        4.2784500
 C        2.6516610        2.1027750        5.2694200
 H        2.6147890        1.0545180        5.6126760
 H        1.7409260        2.5877160        5.6331400
 H        3.5001440        2.5819090        5.7769950
 C       -3.7803570        2.1630710        0.6593570
 H       -4.4659700        3.0070640        0.8384890
 H       -2.8403200        2.3750100        1.1717270
 H       -4.2132100        1.2806860        1.1522950
 C       -0.6886550        2.0116490       -3.4276200
 H       -0.3836780        1.1059260       -3.9715470
 H        0.0706210        2.1885600       -2.6636780
 H       -0.6543370        2.8484660       -4.1441560
 C       -6.0647300        1.3642200       -1.0561640
 H       -6.1614290        1.8586960       -0.0852180
 H       -6.3103610        0.2994280       -0.9004240
 H       -6.8412510        1.7793790       -1.7133380
 C       -5.6441450        0.8199930       -3.9016670
 H       -6.3004930        0.1367590       -3.3479320
 H       -5.3150690        0.2917790       -4.8025140
 H       -6.2683760        1.6691600       -4.2311000
 C       -2.9980850        1.2627210       -5.1346220
 H       -3.0062110        0.1911620       -5.3978860
 H       -2.0514120        1.6731610       -5.4971020
 H       -3.8014430        1.7422620       -5.7116890
