77
M00000026_2D_DFT last geometry from G09 out file
 Ru       -0.0959800        0.0886790        0.7104150
 C       -1.5350320       -0.7001050       -0.0683220
 Cl       -0.9407290        0.2532140        2.9682820
 Cl        1.6219870       -0.6889190       -0.7994720
 H       -2.3151060       -0.2434360       -0.6817390
 H       -1.6236170       -1.7920800        0.1185840
 C       -0.2296100        1.9539560        0.1645140
 N        0.7082170        2.9118120        0.5857340
 N       -1.1567970        2.6222010       -0.6424550
 C        0.5288710        4.1830160       -0.1896130
 C        1.8764020        2.6933050        1.4305500
 C        0.8746150        5.5505830        0.4157530
 C       -0.9602730        4.1092370       -0.5250590
 H        1.1090070        4.0872010       -1.1259110
 C        0.5287840        6.6149980       -0.6690630
 H        1.9396010        5.6148780        0.6816650
 H        0.2922730        5.7331650        1.3308890
 C       -0.9187080        6.4894810       -1.2264140
 H        1.2466420        6.5198920       -1.5019600
 H        0.6706570        7.6235070       -0.2484510
 C       -1.2871480        5.0492610       -1.6942730
 H       -1.6348050        6.8040280       -0.4475480
 H       -1.0464580        7.1889700       -2.0682020
 H       -2.3516950        5.0034400       -1.9652220
 H       -0.7055640        4.7756230       -2.5876740
 H       -1.5435710        4.4523300        0.3494430
 C        3.1332960        2.3918280        0.8277860
 C        1.7586370        2.9045180        2.8374890
 C        4.2636650        2.1746080        1.6665200
 C        4.1285370        2.2454240        3.0829330
 C        2.8940100        2.6593950        3.6643420
 C       -2.3357200        2.1152520       -1.3180760
 C       -3.5963760        2.1721770       -0.6542090
 C       -2.2174680        1.6649980       -2.6661330
 C       -4.7669060        1.7851320       -1.3681280
 C       -4.6614970        1.2922260       -2.7021130
 C       -3.3934290        1.2404130       -3.3533420
 C        3.2984260        2.3280040       -0.6834200
 H        2.3429790        2.2211490       -1.1978620
 H        3.9048890        1.4667800       -0.9840220
 H        3.8010090        3.2361400       -1.0605380
 C        0.4642340        3.4135640        3.4553260
 H       -0.3293780        3.5011160        2.7119950
 H        0.6165180        4.4051520        3.9132210
 H        0.0953350        2.7360740        4.2346520
 C        5.6133030        1.8538040        1.0317320
 H        6.4512690        2.0845890        1.6982800
 H        5.7704560        2.4248970        0.1077680
 H        5.6876980        0.7854670        0.7638030
 C        5.3137510        1.8833760        3.9745180
 H        5.8659110        1.0241050        3.5720000
 H        4.9978450        1.6144790        4.9875500
 H        6.0310860        2.7176860        4.0659470
 C        2.7927010        2.8343180        5.1772680
 H        1.9179540        3.4215510        5.4700860
 H        3.6770950        3.3405990        5.5889240
 H        2.7080960        1.8589070        5.6863380
 C       -3.6955080        2.5988150        0.8049100
 H       -2.7238990        2.5818350        1.3022260
 H       -4.3465860        1.9189870        1.3709150
 H       -4.1191550        3.6121950        0.9079460
 C       -0.8592810        1.6075860       -3.3523400
 H       -0.6081530        0.5806060       -3.6562680
 H       -0.0608700        1.9447210       -2.6903290
 H       -0.8375320        2.2334630       -4.2584340
 C       -6.1352520        1.8888830       -0.7009730
 H       -6.1450180        2.6352140        0.1005260
 H       -6.4448530        0.9286270       -0.2524900
 H       -6.9144880        2.1754890       -1.4187310
 C       -5.9166710        0.8167220       -3.4281720
 H       -6.6098600        0.3070630       -2.7468250
 H       -5.6858220        0.1152160       -4.2363040
 H       -6.4683800        1.6606010       -3.8784930
 C       -3.3033570        0.7330220       -4.7903020
 H       -2.3190860        0.9066580       -5.2325530
 H       -4.0440720        1.2231410       -5.4392870
 H       -3.4933430       -0.3521110       -4.8468060
