37
M00000020_2D_DFT last geometry from G09 out file
 Ru       -0.1715880       -0.1832970        0.1294530
 C        1.6265050       -0.4343020        0.2231230
 Cl       -0.5144300       -0.8528190       -2.1549220
 Cl       -0.9189590       -0.1866580        2.4298750
 H        2.4158270        0.2964150        0.0126880
 H        1.9605190       -1.4653640        0.4612750
 C       -0.2221970        1.7247720       -0.1653090
 N        0.7362270        2.7170960        0.0491360
 N       -1.3178710        2.3458420       -0.7565430
 C        0.3699700        3.9888090       -0.6478850
 C        1.9202990        2.6885080        0.8649680
 C       -1.1422830        3.8213990       -0.8817300
 H        0.9181330        4.0772080       -1.5993820
 H        0.6118650        4.8517860       -0.0158230
 H       -1.4545710        4.1719550       -1.8726850
 C        1.8591050        2.2721360        2.2174090
 C        3.1453180        3.1626810        0.3316520
 C        3.0220440        2.3063370        3.0129730
 C        4.2442910        2.7772180        2.4844350
 H        2.9660370        1.9727730        4.0503850
 C        4.2985280        3.2096960        1.1416020
 H        5.2371000        3.5731740        0.7197070
 C       -2.6136320        1.7623350       -1.0197300
 C       -3.1463170        1.8138990       -2.3290290
 C       -3.3778520        1.2082780        0.0337810
 C       -4.4335010        1.3039510       -2.5836920
 C       -5.1935580        0.7320470       -1.5384570
 H       -4.8337530        1.3325890       -3.5983610
 C       -4.6595740        0.6820230       -0.2341120
 H       -5.2373970        0.2424860        0.5803920
 H       -2.5428450        2.2101830       -3.1455100
 H       -2.9786580        1.1860440        1.0457460
 H       -1.7495140        4.3369300       -0.1187820
 H       -6.1864490        0.3276460       -1.7411760
 H        0.9208630        1.9113200        2.6311650
 H        3.2044460        3.4760520       -0.7111070
 H        5.1383680        2.8090510        3.1087700
