43
M00000019_2D_DFT last geometry from G09 out file
 Ru       -0.3184850       -0.1992400        0.2064870
 C        1.2268790       -0.4817650        1.1188980
 Cl        0.3412250       -0.4286620       -2.0896300
 Cl       -1.8710850       -0.7031740        1.9865860
 H        1.8501390        0.2324320        1.6637830
 H        1.5436260       -1.5450250        1.1672970
 C       -0.5098140        1.7250180        0.2332300
 N        0.2934610        2.7347070        0.7667420
 N       -1.6497110        2.3528130       -0.2686620
 C       -0.2933580        4.1005760        0.5351540
 C        1.7163010        2.6663500        0.9810560
 C       -1.7485130        3.7775990        0.1629830
 H        0.2458640        4.5935390       -0.2892520
 H       -0.2179940        4.7155650        1.4355750
 H       -2.1297010        4.4156660       -0.6401730
 C        2.3111520        2.9204630        2.2523860
 C        2.5499840        2.4273630       -0.1373120
 C        3.7219610        2.9411350        2.3657710
 C        4.5397780        2.7004120        1.2455350
 H        4.1781470        3.1307110        3.3350870
 C        3.9517200        2.4351860       -0.0080080
 H        4.5751190        2.2399340       -0.8812350
 C       -2.6952310        1.7498230       -1.0606820
 C       -2.7827630        1.9664710       -2.4707090
 C       -3.6877640        0.9761800       -0.4212110
 C       -3.8415050        1.3735590       -3.1969390
 C       -4.8067790        0.5780750       -2.5503510
 H       -3.9037490        1.5261340       -4.2725320
 C       -4.7334980        0.3845460       -1.1582340
 H       -5.4781540       -0.2221450       -0.6420320
 C       -1.8520670        2.8771110       -3.2425620
 F       -0.5131650        2.9091220       -2.8106950
 F       -2.2971570        4.2475130       -3.1716830
 F       -1.8110390        2.5750230       -4.6184840
 H       -3.6194160        0.8230910        0.6521070
 H       -2.4227600        3.8522430        1.0316210
 H       -5.6072880        0.1214660       -3.1327760
 C        1.4908770        3.1603120        3.5017610
 F        2.2694900        3.0930650        4.6795790
 F        0.4355860        2.2447580        3.6797440
 F        0.8902110        4.4608750        3.5277560
 H        2.0872240        2.2209360       -1.1005540
 H        5.6242540        2.7168420        1.3556760
