97
M00000329_2D_DFT last geometry from G09 out file
 Ru        0.2580810       -0.2315040       -0.2634450
 C       -1.2550230       -1.0634890       -0.8181910
 Cl        0.1006560       -0.6910980        2.1029500
 Cl        1.3787590       -0.5772620       -2.4025180
 H       -2.1558470       -0.6626750       -1.2833190
 H       -1.1993830       -2.1702720       -0.7277820
 C       -0.0437750        1.7172280       -0.2862750
 N        0.9215220        2.5884590        0.2432870
 N       -1.0543100        2.4801140       -0.8570300
 C        0.6553500        4.0599790       -0.1246400
 C        1.9004610        2.1745440        1.2708470
 C       -0.7506970        3.9942080       -0.8667140
 H        0.5374500        4.6150880        0.8115060
 H       -0.5916760        4.2678380       -1.9163170
 C        1.6545610        2.4204600        2.6679960
 C        3.1407390        1.5329790        0.9304010
 C        2.6019830        2.0771820        3.6540370
 C        3.8131620        1.4431260        3.3269260
 H        2.3717940        2.2731480        4.6982450
 C        4.0389770        1.1772070        1.9676800
 H        4.9631060        0.6755520        1.6904990
 C       -2.2110170        1.9100470       -1.5393610
 C       -2.3120100        1.8915560       -2.9697220
 C       -3.3192290        1.3935900       -0.7822160
 C       -3.4922280        1.4498880       -3.6098610
 C       -4.6047450        0.9962150       -2.8774640
 H       -3.5338680        1.4494180       -4.6970600
 C       -4.4782010        0.9675570       -1.4752690
 H       -5.3179970        0.5977680       -0.8883410
 C       -1.2425940        2.3706560       -3.9280790
 F        0.0738370        2.2717450       -3.4796750
 F       -1.4256910        3.7621210       -4.2794180
 F       -1.2820690        1.6880850       -5.1669010
 C       -3.3452040        1.3036180        0.7466310
 C       -3.9182630       -0.0020020        1.3549880
 H       -3.9649990        2.1352600        1.1213030
 H       -2.3440860        1.4487190        1.1510590
 H       -4.9773920       -0.1644130        1.1078540
 H       -3.8433020        0.0585840        2.4507770
 H       -3.3475870       -0.8842200        1.0397430
 C        1.8749560        4.7681970       -0.9051370
 C        3.0882330        4.9125770        0.0704000
 C        2.2866950        4.0345310       -2.2127670
 C        1.5507770        6.2331980       -1.3327730
 H        3.8618050        5.5335310       -0.4050750
 H        3.5539740        3.9649290        0.3397070
 H        2.7897170        5.4172340        1.0020680
 H        2.3031760        2.9507210       -2.1144160
 H        3.2906130        4.3653380       -2.5186490
 H        1.6044800        4.2773900       -3.0363000
 H        1.3573540        6.8947200       -0.4791030
 H        0.7118610        6.2962140       -2.0321910
 H        2.4325780        6.6299620       -1.8576590
 C       -5.8897530        0.5739450       -3.5739870
 C       -6.8841340        1.7529850       -3.7946180
 H       -6.3955650       -0.2060830       -2.9825750
 H       -5.6540060        0.1263030       -4.5528650
 C       -8.1837640        1.3137600       -4.5028340
 H       -6.3876790        2.5389660       -4.3876880
 H       -7.1293980        2.2070760       -2.8199210
 H       -8.7223290        0.5514360       -3.9175290
 H       -8.8624570        2.1693730       -4.6424960
 H       -7.9743570        0.8872840       -5.4967190
 C       -1.9344020        4.9748660       -0.3620400
 C       -2.3939440        4.7645530        1.1040940
 C       -1.4937190        6.4691710       -0.4519720
 C       -3.1750920        4.8731590       -1.3091530
 H       -1.6361390        5.0953570        1.8216300
 H       -2.6368810        3.7296470        1.3297880
 H       -3.2954420        5.3699960        1.2835330
 H       -2.3317860        7.0893740       -0.1018360
 H       -1.2653170        6.7834330       -1.4777650
 H       -0.6388130        6.6973860        0.1914050
 H       -3.7488780        3.9537940       -1.1742740
 H       -2.8914450        4.9531240       -2.3669540
 H       -3.8543840        5.7099830       -1.0889250
 C        0.4047050        3.0530600        3.2291590
 F       -0.7916580        2.6695230        2.6075950
 F        0.4477740        4.4968970        3.1530240
 F        0.2064340        2.7916510        4.6034310
 C        3.6150340        1.2705900       -0.5006430
 C        4.5601030        0.0639220       -0.7134410
 H        4.1429300        2.1720890       -0.8511290
 H        2.7632560        1.1439520       -1.1690080
 H        4.1484660       -0.8599140       -0.2836100
 H        5.5648340        0.2265590       -0.2952970
 H        4.6786120       -0.1025610       -1.7932450
 C        4.8314370        1.0821440        4.3972740
 C        5.8194580        2.2411730        4.7246990
 H        5.4128880        0.2040280        4.0744060
 H        4.3101640        0.7925420        5.3239860
 C        6.8446340        1.8625780        5.8153270
 H        5.2463440        3.1261040        5.0483160
 H        6.3507300        2.5348230        3.8037830
 H        7.4581080        1.0008690        5.5073700
 H        7.5265050        2.7021250        6.0219340
 H        6.3445630        1.5970140        6.7603380
