115
Mol_000223_2D_DFT last geometry from G09 out file
 Ru        0.2635100       -0.7094900       -0.2928340
 C       -0.9408650       -1.5548540       -1.3550820
 Cl       -0.5685380       -1.5020280        1.8386890
 Cl        1.9867730       -0.3594110       -1.9828270
 H       -1.8445940       -1.1761580       -1.8355190
 H       -0.7069020       -2.6297480       -1.5235810
 C       -0.3061650        1.1560060       -0.1627650
 N        0.4203750        2.0330220        0.6377310
 N       -1.2977660        1.8788440       -0.8033560
 C        1.5324000        1.5960130        1.4840710
 C        0.1590160        3.4973120        0.2151380
 C        2.7922190        1.3619750        0.8785560
 C        1.3900440        1.4151940        2.8978810
 C        3.9128620        0.9721470        1.6296360
 C        3.8121650        0.8096010        3.0296030
 H        4.8531380        0.7877890        1.1097860
 C        2.5479170        1.0350440        3.6214890
 H        2.4586500        0.8883660        4.6963650
 C       -1.3779940        3.3342450       -0.2519410
 C       -2.3694650        1.2779420       -1.5799860
 C       -3.4461220        0.6799300       -0.8779370
 C       -2.3803310        1.2754260       -3.0082180
 C       -4.5534880        0.1402830       -1.5542800
 C       -4.6244820        0.1804780       -2.9674390
 H       -5.3607830       -0.3160660       -0.9786320
 C       -3.5242650        0.7409820       -3.6559920
 H       -3.5426890        0.7637460       -4.7456070
 C       -5.8464660       -0.3842350       -3.7051610
 C       -5.4815350       -1.5997160       -4.6031740
 C       -6.5989220        0.7091270       -4.5145210
 H       -6.5461550       -0.7526350       -2.9359190
 H       -6.3893930       -2.0281600       -5.0556400
 H       -4.9872820       -2.3901820       -4.0186300
 H       -4.8040410       -1.3118980       -5.4209300
 H       -6.8963570        1.5477220       -3.8668900
 H       -7.5100390        0.2902730       -4.9694370
 H       -5.9759830        1.1141420       -5.3261120
 C        1.1853980        3.7917640       -0.9526680
 C        1.3444830        5.2126510       -1.5684390
 H        1.0079080        3.0729660       -1.7625150
 H        2.1656140        3.5282800       -0.5373520
 C        2.6668190        5.3274680       -2.3653950
 H        1.3335420        5.9885870       -0.7894450
 H        0.5159210        5.4489150       -2.2474160
 H        2.7177100        4.5725500       -3.1661370
 H        2.7589990        6.3197080       -2.8348500
 H        3.5442670        5.1810420       -1.7157760
 C        0.3288730        4.5209330        1.3784800
 C        1.7490300        4.9171900        1.8693290
 H       -0.2286050        4.1582990        2.2454040
 H       -0.1725150        5.4461740        1.0563960
 C        1.6745550        5.9912590        2.9806530
 H        2.3567400        5.3128200        1.0447960
 H        2.2843280        4.0436600        2.2578050
 H        1.1152730        5.6284690        3.8579910
 H        2.6838000        6.2680910        3.3231620
 H        1.1794610        6.9098590        2.6251930
 C       -1.7832720        4.3735750       -1.3443860
 C       -3.2662720        4.5123590       -1.7879800
 H       -1.1860390        4.1856180       -2.2409210
 H       -1.4685090        5.3583390       -0.9678790
 C       -3.4292270        5.6357560       -2.8397460
 H       -3.9148900        4.7431540       -0.9327680
 H       -3.6376910        3.5740040       -2.2138460
 H       -4.4817140        5.7310130       -3.1493850
 H       -3.1090890        6.6128960       -2.4425420
 H       -2.8341720        5.4327950       -3.7445640
 C       -2.4338820        3.3041810        0.9213850
 C       -2.8950190        4.6080490        1.6395830
 H       -2.0915570        2.5880560        1.6785950
 H       -3.3371860        2.8670570        0.4794660
 C       -4.2391620        4.3955270        2.3773190
 H       -3.0104900        5.4369240        0.9270810
 H       -2.1519870        4.9408010        2.3744920
 H       -4.5398370        5.3072380        2.9174430
 H       -5.0493040        4.1388530        1.6764210
 H       -4.1665120        3.5805390        3.1149770
 H        2.8859670        1.4512120       -0.1983940
 C        0.0635650        1.6178360        3.6337690
 C       -0.1292750        0.8102360        4.9437870
 H       -0.0521060        2.6893220        3.8650260
 H       -0.7503390        1.3507750        2.9513940
 C       -1.5689390        0.8815190        5.5165490
 H        0.1129110       -0.2442830        4.7440580
 H        0.5688350        1.1617460        5.7226900
 C       -2.0002880        2.2651540        6.0580620
 H       -1.6434010        0.1484050        6.3386510
 H       -2.2830210        0.5459610        4.7448240
 H       -2.0378960        3.0285730        5.2660850
 H       -1.3035460        2.6215910        6.8343300
 H       -3.0034320        2.2120240        6.5106560
 C        5.0048700        0.3722950        3.8899360
 C        6.1898160        1.3746020        3.8113520
 C        5.4633340       -1.0726470        3.5424050
 H        4.6637680        0.3576420        4.9391120
 H        5.8717220        2.3889090        4.0968760
 H        6.6107840        1.4265100        2.7961540
 H        6.9982700        1.0663530        4.4926350
 H        6.2674040       -1.3949850        4.2225030
 H        5.8463600       -1.1382330        2.5131080
 H        4.6296070       -1.7844470        3.6355810
 H       -3.3932540        0.6072750        0.2063510
 C       -1.2373360        1.8111770       -3.8684880
 C       -0.6328940        0.7756940       -4.8618460
 H       -1.6050930        2.6785430       -4.4416400
 H       -0.4273330        2.1679990       -3.2254870
 C        0.5446410        1.3292510       -5.7053930
 H       -0.2688680       -0.0873650       -4.2860740
 H       -1.4137670        0.4017300       -5.5448020
 C        0.1646730        2.4065720       -6.7483050
 H        1.0102610        0.4791560       -6.2330540
 H        1.3212430        1.7237510       -5.0285100
 H        1.0434020        2.6964110       -7.3461840
 H       -0.2272160        3.3219010       -6.2786920
 H       -0.6027660        2.0321920       -7.4456170
