95
Mol_000174_2D_DFT last geometry from G09 out file
 Ru        0.4546740       -0.4962590       -0.5187530
 C       -0.7605670       -1.3305810       -1.5776960
 Cl       -0.3486110       -1.2900370        1.6210030
 Cl        2.1655800       -0.1215670       -2.2039950
 H       -1.6631230       -0.9512370       -2.0597100
 H       -0.5281110       -2.4051110       -1.7480230
 C       -0.0929830        1.3729100       -0.3758040
 N        0.6509340        2.2477120        0.4133340
 N       -1.0822460        2.1087080       -1.0069300
 C        1.7542660        1.8051510        1.2655640
 C        0.4046330        3.7138000       -0.0142500
 C        3.0197020        1.5704610        0.6692360
 C        1.5876990        1.6186340        2.6773210
 C        4.1297860        1.1837420        1.4326000
 C        3.9993990        1.0148430        2.8311280
 H        5.0937460        1.0024770        0.9600010
 C        2.7282350        1.2269520        3.4178220
 H        2.6123560        1.0744310        4.4861770
 C       -1.1377220        3.5691400       -0.4651850
 C       -2.1705610        1.5157170       -1.7633340
 C       -3.2359170        0.9248270       -1.0343710
 C       -2.2048820        1.5175300       -3.1927440
 C       -4.3634120        0.3961440       -1.6802240
 C       -4.4541830        0.4504300       -3.0942710
 H       -5.1541030       -0.0517420       -1.0806280
 C       -3.3670430        1.0002260       -3.8143190
 H       -3.4459980        1.0141190       -4.9002150
 C       -5.6486410       -0.0645160       -3.8633880
 C       -6.8054490       -0.7108340       -3.1030510
 O       -5.6917470        0.0371920       -5.1211950
 H       -7.2545960       -0.0064990       -2.3854890
 H       -7.5717870       -1.0248850       -3.8202510
 H       -6.4661570       -1.5901450       -2.5335680
 C        1.4238560        3.9928310       -1.1911510
 C        1.5745620        5.4104170       -1.8064280
 H        2.4057730        3.7286690       -0.7813170
 H        1.2387000        3.2705430       -1.9957840
 H        1.6137600        6.2070160       -1.0526560
 H        0.7811250        5.6653550       -2.5171610
 H        2.5249220        5.4460250       -2.3624850
 C        0.5994390        4.7415470        1.1417790
 C        2.0293800        5.1101100        1.6130650
 H        0.1117900        5.6715670        0.8151780
 H        0.0397760        4.3967010        2.0139280
 H        2.6525490        5.5297680        0.8147560
 H        2.5680650        4.2621090        2.0465120
 H        1.9466380        5.8806270        2.3966050
 C       -1.5402750        4.6061920       -1.5610630
 C       -3.0254020        4.7549830       -1.9804570
 H       -1.2077660        5.5879580       -1.1945920
 H       -0.9547930        4.4052030       -2.4619240
 H       -3.4396890        3.8468760       -2.4277640
 H       -3.0905180        5.5509440       -2.7397500
 H       -3.6800750        5.0490250       -1.1517380
 C       -2.1841590        3.5643730        0.7160340
 C       -2.5994020        4.8835080        1.4253670
 H       -3.1007620        3.1475160        0.2823000
 H       -1.8532530        2.8441360        1.4738710
 H       -2.7412390        5.7216470        0.7321910
 H       -1.8875580        5.2075790        2.1919140
 H       -3.5628200        4.7180580        1.9335740
 H        3.1230300        1.6607950       -0.4065530
 C        0.2483710        1.8229090        3.3865300
 C        0.0467930        1.0878220        4.7350660
 H        0.0987820        2.9014210        3.5663090
 H       -0.5481570        1.5037990        2.7061570
 C       -1.4038650        1.2212280        5.2592760
 H        0.2868840        0.0208610        4.6099800
 H        0.7308450        1.4894480        5.5023120
 C       -1.6246850        0.5290140        6.6224340
 H       -2.0956310        0.7875610        4.5168060
 H       -1.6676730        2.2909320        5.3485140
 H       -2.6676090        0.6384250        6.9594030
 H       -0.9749020        0.9598310        7.4013960
 H       -1.4048790       -0.5484650        6.5601060
 C        5.2119140        0.6047470        3.6336250
 C        5.0595650        0.2917790        5.1221580
 O        6.3433920        0.5177570        3.0801600
 H        4.7100210        1.1738640        5.6816170
 H        4.3289120       -0.5151590        5.2866230
 H        6.0318570       -0.0175100        5.5215470
 H       -3.1552470        0.8543490        0.0480400
 C       -1.0725720        2.0371960       -4.0743630
 C       -0.5190570        0.9943040       -5.0899990
 H       -1.4380660        2.9150770       -4.6321700
 H       -0.2393660        2.3721170       -3.4494640
 C        0.6438450        1.5302000       -5.9643810
 H       -0.1554530        0.1206300       -4.5294580
 H       -1.3274130        0.6406710       -5.7505370
 C        0.2540990        2.6222120       -6.9879550
 H        1.0734790        0.6739300       -6.5119010
 H        1.4495950        1.9029960       -5.3095100
 H       -0.0995750        3.5443190       -6.5014500
 H       -0.5448510        2.2700580       -7.6604940
 H        1.1191200        2.8943640       -7.6132200
