91
Mol_000173_2D_DFT last geometry from G09 out file
 Ru        1.0717570        0.1306700       -0.6207960
 C       -0.2488590       -0.8653110       -1.3705330
 Cl        0.9835510       -0.8197020        1.6017720
 Cl        2.3391890        0.5628970       -2.6387090
 H       -1.2733770       -0.5823420       -1.6210360
 H        0.0457570       -1.9112370       -1.6051200
 C        0.3182910        1.9270190       -0.3948350
 N        1.0766910        2.9441340        0.1960900
 N       -0.8852760        2.4755660       -0.8215630
 C        2.2714720        2.7156790        1.0293130
 C        0.4789310        4.3307040       -0.0924270
 C        3.6015510        2.7572110        0.4865020
 C        2.0971510        2.4455250        2.4329030
 C        4.6922500        2.4635480        1.3439620
 C        4.5407970        2.1605700        2.7081020
 H        5.6937610        2.4548560        0.9120110
 C        3.2319600        2.1755580        3.2277660
 H        3.0829590        1.9337100        4.2805710
 C       -1.0390900        3.9531060       -0.4042590
 C       -2.0053200        1.7842670       -1.4532520
 C       -2.9810220        1.0964280       -0.6526510
 C       -2.1609160        1.8377530       -2.8775910
 C       -4.1300760        0.5756190       -1.2949880
 C       -4.3568260        0.7069250       -2.6807450
 H       -4.8644910        0.0385690       -0.6950020
 C       -3.3472700        1.3200100       -3.4496110
 H       -3.4770000        1.3868040       -4.5300330
 C       -5.6365120        0.1952260       -3.3211720
 H       -6.4220370        0.9700730       -3.3071330
 H       -6.0352510       -0.6798430       -2.7879040
 H       -5.4796440       -0.0900910       -4.3711930
 C        1.1862400        4.9668830       -1.3228440
 H        1.1685380        4.3113200       -2.1995830
 H        2.2262890        5.1881160       -1.0760780
 H        0.7090600        5.9191440       -1.5878660
 C        0.6578080        5.3092690        1.0903260
 H        0.1910610        4.9646240        2.0133400
 H        0.2208410        6.2830990        0.8271960
 H        1.7252820        5.4696680        1.2884920
 C       -1.6761720        4.8175080       -1.5226840
 H       -1.1332430        4.7788450       -2.4669740
 H       -1.7140170        5.8648250       -1.1909560
 H       -2.7084100        4.4951240       -1.7072390
 C       -1.9919510        4.0816840        0.8178010
 H       -2.0947300        5.1372880        1.1022370
 H       -1.6556780        3.5244450        1.6938740
 H       -2.9881660        3.7196190        0.5426790
 C        3.9785750        3.0634800       -0.9627960
 C        4.8750770        4.3235180       -1.1453880
 H        4.5334610        2.1994720       -1.3586270
 H        3.0937520        3.1432910       -1.5931820
 C        5.2336690        4.5870370       -2.6283480
 H        4.3773360        5.2139250       -0.7250170
 H        5.8079760        4.2041530       -0.5711410
 C        6.1475610        5.8165470       -2.8282940
 H        4.3072570        4.7219650       -3.2132070
 H        5.7283220        3.6922770       -3.0446110
 H        6.3803780        5.9692550       -3.8941060
 H        7.1026370        5.6961200       -2.2919250
 H        5.6694440        6.7368950       -2.4552010
 C        0.7416440        2.3587030        3.1335190
 C        0.5837770        3.2516450        4.3924460
 H        0.5867110        1.3103860        3.4279130
 H       -0.0571590        2.5847990        2.4271590
 H       -0.4339570        3.1463160        4.8018570
 H        0.7541290        4.3160560        4.1741210
 H        1.2837220        2.9648240        5.1896590
 C        5.7300100        1.7935520        3.5790680
 H        6.6773000        2.1392020        3.1420800
 H        5.8025000        0.6994940        3.6995590
 H        5.6427910        2.2248540        4.5876630
 C       -2.7837730        0.7637290        0.8301740
 C       -3.9874840        1.0397190        1.7725580
 H       -2.5474480       -0.3124330        0.8944430
 H       -1.8982890        1.2685310        1.2210220
 C       -3.6919110        0.6450330        3.2406690
 H       -4.2654150        2.1056160        1.7306860
 H       -4.8736780        0.4786510        1.4354810
 C       -4.8857360        0.8878840        4.1903940
 H       -2.8159590        1.2090610        3.6052050
 H       -3.4047120       -0.4201140        3.2794120
 H       -5.1776120        1.9505700        4.2048310
 H       -4.6368370        0.5953640        5.2226600
 H       -5.7677310        0.3037070        3.8818310
 C       -1.0984560        2.3966900       -3.8286930
 C       -0.6794070        1.4309190       -4.9680720
 H       -0.1984710        2.6618860       -3.2678080
 H       -1.4806000        3.3239660       -4.2902980
 H       -1.5178740        1.1749720       -5.6316510
 H       -0.2573660        0.5027050       -4.5632410
 H        0.0993890        1.9060130       -5.5842660
