73
M00000283_2D_DFT last geometry from G09 out file
 Ru       -0.7410850       -0.0735790        1.7514300
 C       -2.5425500       -0.0903660        1.5134750
 Cl       -0.7252230        0.6735760        4.0480490
 Cl        0.0953440       -1.5574760        0.0672090
 H       -3.1928730        0.7162450        1.1610430
 H       -3.0503820       -1.0205340        1.8417000
 C       -0.2530790        1.6114220        0.9415600
 N        0.9954800        2.2013520        1.1506000
 N       -1.0127260        2.5241610        0.2061500
 C        2.1628350        1.4449760        1.5504870
 C        0.9488520        3.7290400        0.9102790
 C        3.0509010        0.8294660        0.6127800
 C        2.4385100        1.2870390        2.9291830
 C        4.1773270        0.1139400        1.0815860
 C        4.4320530       -0.0172570        2.4570150
 H        4.8440830       -0.3594830        0.3649840
 C        3.5529480        0.5692170        3.3886210
 H        3.7176320        0.4560340        4.4590150
 C       -0.2067460        3.7445300       -0.1295020
 H       -0.8154610        4.6459860       -0.0508840
 H        0.1708140        3.6496000       -1.1592220
 C       -2.1273150        2.2043770       -0.6401080
 C       -1.9605820        1.1885840       -1.6139980
 C       -3.3613410        2.9239220       -0.6041910
 C       -2.9754520        0.8856930       -2.5334870
 C       -4.1816060        1.6181880       -2.5096620
 H       -2.8163710        0.1006820       -3.2712380
 C       -4.3698830        2.6269670       -1.5472750
 H       -5.3061190        3.1779030       -1.5195910
 H       -1.0285270        0.6314870       -1.6374600
 C       -3.6707770        3.9945310        0.4225230
 F       -3.2365510        3.6750030        1.7253940
 F       -5.0531440        4.2555150        0.5251650
 F       -3.0737540        5.2558410        0.1058690
 C        0.4863360        4.4756380        2.2168100
 C        1.5322450        4.8025130        3.3109760
 H        0.0398080        5.4297420        1.8926200
 H       -0.3332030        3.8965040        2.6652660
 C        0.8717300        5.4403280        4.5598630
 H        2.0743380        3.9014120        3.6258410
 H        2.2906560        5.4990680        2.9201290
 C        1.8870140        5.8183180        5.6605590
 H        0.1271380        4.7393630        4.9744470
 H        0.3115580        6.3423640        4.2564620
 H        1.3789270        6.2665020        6.5283920
 H        2.6264580        6.5479470        5.2929440
 H        2.4382240        4.9339680        6.0185760
 C        2.2674350        4.2843280        0.3110650
 C        2.2107160        5.7720860       -0.1295230
 H        3.0790880        4.1646990        1.0429370
 H        2.5398370        3.6892630       -0.5673990
 C        3.5580500        6.2506220       -0.7257500
 H        1.4215290        5.9124980       -0.8871380
 H        1.9480630        6.4201170        0.7201670
 C        3.5299000        7.7247510       -1.1853420
 H        3.8292440        5.6067270       -1.5801460
 H        4.3560650        6.1184100        0.0257070
 H        4.5043740        8.0272580       -1.5987400
 H        3.2978010        8.4022670       -0.3480930
 H        2.7713050        7.8866850       -1.9677020
 C       -5.2892430        1.2823020       -3.4778250
 F       -4.7996430        0.8671570       -4.7361320
 F       -6.1577550        2.3696990       -3.7157780
 F       -6.1093620        0.2193350       -3.0073200
 C        2.9509630        0.8869790       -0.9026640
 F        3.9277530        1.7891840       -1.4420060
 F        1.7207120        1.3074840       -1.4356090
 F        3.2342530       -0.3579320       -1.4989820
 H        1.7368320        1.6993780        3.6445870
 C        5.6633810       -0.7466340        2.9387910
 F        6.7222420        0.1534790        3.2497940
 F        6.1808690       -1.6468470        1.9864080
 F        5.4261310       -1.4863390        4.1182090
