89
M00000286_2D_DFT last geometry from G09 out file
 Ru        0.4844420        0.0114160       -0.4082290
 C       -0.9877500       -0.8643880       -1.0021040
 Cl        0.3414200       -0.6406530        1.9222560
 Cl        1.5263160        0.0858700       -2.6286920
 H       -1.9438320       -0.4731190       -1.3536910
 H       -0.8520980       -1.9678740       -1.0553410
 C        0.0461960        1.9221730       -0.2754130
 N        1.0031480        2.8086390        0.2302850
 N       -1.0612360        2.6417230       -0.6949880
 C        0.6049950        4.2670140        0.0106120
 C        2.0599640        2.4054340        1.1840900
 C       -0.8676840        4.1564300       -0.5611840
 H        0.5834430        4.7507910        0.9955090
 H       -0.8689670        4.5578120       -1.5819120
 C        1.7941810        2.4985970        2.5909100
 C        3.3509270        1.9355050        0.7758470
 C        2.7848400        2.1631790        3.5303210
 C        4.0728530        1.6955110        3.1484750
 H        2.5196240        2.2303030        4.5821560
 C        4.3081930        1.5832290        1.7530780
 H        5.2637280        1.2112100        1.3919660
 C       -2.2073400        2.0795470       -1.4060530
 C       -2.3028420        2.2091080       -2.8280470
 C       -3.2652600        1.4199030       -0.7048220
 C       -3.4614110        1.7688220       -3.4985070
 C       -4.5640220        1.1797110       -2.8145980
 H       -3.4855410        1.8768690       -4.5798160
 C       -4.4101230        0.9917510       -1.4121270
 H       -5.1842960        0.4837390       -0.8415490
 C       -1.1841870        2.7844790       -3.6816580
 H       -1.2119830        3.8857930       -3.7093370
 H       -1.2807280        2.4373870       -4.7188610
 H       -0.1999670        2.4720940       -3.3232280
 C       -3.2339030        1.0743280        0.7792270
 H       -3.9481560        1.6904270        1.3470690
 H       -2.2440150        1.1794710        1.2244180
 H       -3.5350500        0.0265360        0.9246040
 C        1.6522400        5.1078700       -0.8744570
 C        2.9530390        5.3375130       -0.0426680
 C        1.9727910        4.4251770       -2.2337310
 C        1.1370290        6.5397580       -1.2195120
 H        2.7262710        5.8464720        0.9076490
 H        3.6415680        5.9855650       -0.6060140
 H        3.4825260        4.4159830        0.1969980
 H        1.1514310        4.5572850       -2.9497420
 H        2.1628240        3.3570970       -2.1371780
 H        2.8648170        4.8897870       -2.6801060
 H        0.9815250        7.1605460       -0.3286800
 H        0.2124180        6.5312460       -1.8086510
 H        1.9026040        7.0373470       -1.8339180
 N       -5.7243450        0.7815270       -3.4912520
 C       -5.8116520        0.9097230       -4.9524020
 C       -6.8156830        0.1189900       -2.7647860
 H       -6.8014410        0.5809800       -5.2900220
 H       -5.0559590        0.2938020       -5.4729370
 H       -5.6801520        1.9560600       -5.2762210
 H       -6.5081680       -0.8544640       -2.3403820
 H       -7.6528390       -0.0637060       -3.4485790
 H       -7.1916260        0.7464710       -1.9391990
 C       -2.0422740        4.9631030        0.1923100
 C       -2.3802280        4.4339920        1.6116270
 C       -1.6727610        6.4686860        0.3731150
 C       -3.3363950        4.9599070       -0.6846220
 H       -1.6159360        4.7220300        2.3421170
 H       -2.4891340        3.3514840        1.6409750
 H       -3.3298440        4.8774850        1.9476700
 H       -2.4897520        6.9574270        0.9248750
 H       -1.5661110        6.9953100       -0.5826250
 H       -0.7576400        6.6148570        0.9588110
 H       -3.8307960        3.9868150       -0.7164100
 H       -3.1223600        5.2641580       -1.7204650
 H       -4.0544750        5.6852730       -0.2722830
 C        0.4520950        2.9259350        3.1555510
 H       -0.3778380        2.5411360        2.5609300
 H        0.3625690        4.0222380        3.2078030
 H        0.3293770        2.5431440        4.1766470
 C        3.8352140        1.8043350       -0.6609030
 H        4.4174640        2.6900860       -0.9602130
 H        3.0356670        1.6647410       -1.3844530
 H        4.5015800        0.9360920       -0.7562160
 N        5.0467420        1.3536760        4.0957850
 C        6.3291230        0.7821000        3.6632530
 C        4.7298940        1.3910590        5.5299150
 H        6.2006290       -0.1771650        3.1293400
 H        6.9617940        0.5973290        4.5394020
 H        6.8760790        1.4714790        2.9980810
 H        3.9235960        0.6846900        5.7995500
 H        4.4205580        2.4003570        5.8499310
 H        5.6211650        1.1209430        6.1085220
