73
Mol_000287_2D_DFT last geometry from G09 out file
 Ru       -0.0350360       -0.0897290        0.2742300
 C       -1.3712470       -0.8651390       -0.6776010
 Cl       -0.9742680       -0.1565370        2.4939780
 Cl        1.7454050       -0.3704130       -1.3615950
 H       -2.1320540       -0.4247130       -1.3247050
 H       -1.3865420       -1.9736400       -0.5845630
 C       -0.2008890        1.8320170        0.0167160
 N        0.6925430        2.6818730        0.6571970
 N       -1.0162260        2.6122410       -0.7867780
 C        0.5871160        4.1086920        0.2020170
 C        1.6375530        2.3060170        1.6981110
 C       -0.6180880        4.0741680       -0.7955060
 H        0.3226200        4.7243720        1.0735180
 H       -0.2582540        4.3045050       -1.8069220
 C        1.4042610        2.6588330        3.0632420
 C        2.8241530        1.6256880        1.3337550
 C        2.3960680        2.3155440        4.0078220
 C        3.5834220        1.6352260        3.6478920
 H        2.2439370        2.5616490        5.0581040
 C        3.7882200        1.2797260        2.2951300
 H        4.6882680        0.7464820        1.9986180
 C       -2.1037190        2.1303510       -1.6108340
 C       -1.9663620        1.9868050       -3.0238450
 C       -3.3335100        1.8218120       -0.9798710
 C       -3.1065830        1.5769970       -3.7541380
 C       -4.3456670        1.2974880       -3.1309490
 H       -3.0369460        1.4574460       -4.8348760
 C       -4.4498380        1.4083710       -1.7228040
 H       -5.3870950        1.1726150       -1.2244950
 C       -0.6578610        2.2235350       -3.7566530
 H        0.1979370        1.8332240       -3.1936930
 H       -0.4819510        3.2956120       -3.9424880
 H       -0.6709950        1.7263450       -4.7352010
 H       -3.3961900        1.8846700        0.1045250
 C        1.9402420        4.6802140       -0.3485670
 C        1.8730990        6.2226700       -0.4975230
 C        2.4593630        4.0175770       -1.6477680
 H        2.6802830        4.4728530        0.4423720
 H        1.1780030        6.5325340       -1.2926300
 H        2.8657410        6.6171660       -0.7609560
 H        1.5615440        6.7120420        0.4388650
 H        3.4997020        4.3269860       -1.8291680
 H        1.8768900        4.3219920       -2.5301550
 H        2.4442970        2.9223400       -1.5922500
 C       -5.4915350        0.8747950       -3.9957550
 O       -6.6433210        0.6161070       -3.2480850
 O       -5.4507820        0.7595410       -5.2424970
 C       -7.8383190        0.1838870       -4.0060650
 H       -8.6139560        0.0457770       -3.2452350
 H       -8.1312170        0.9541380       -4.7326290
 H       -7.6355920       -0.7566100       -4.5364900
 C       -1.7154990        5.1544490       -0.4717810
 C       -2.5505010        4.9196800        0.8103180
 C       -2.6252160        5.4934420       -1.6819570
 H       -1.1105550        6.0611070       -0.2917660
 H       -3.1079460        5.8358810        1.0581050
 H       -1.9282130        4.6705780        1.6784520
 H       -3.2852050        4.1169690        0.6810400
 H       -3.2171550        6.3949820       -1.4614610
 H       -3.3290690        4.6869180       -1.9185080
 H       -2.0321100        5.7035930       -2.5861170
 C        0.1384370        3.3453650        3.5416590
 H        0.1739640        4.4348190        3.3770780
 H        0.0017670        3.1860940        4.6187320
 H       -0.7448280        2.9454790        3.0317110
 H        2.9839130        1.3569590        0.2941200
 C        4.5679150        1.3159850        4.7282090
 O        5.6738920        0.6149040        4.2395090
 O        4.4433530        1.6296120        5.9349970
 C        6.7051920        0.2382000        5.2302750
 H        7.4642400       -0.2973050        4.6499260
 H        7.1300150        1.1347410        5.7026400
 H        6.2731830       -0.4094950        6.0054160
