79
Mol_000286_2D_DFT last geometry from G09 out file
 Ru        0.1133140        0.0308680       -0.2855540
 C       -1.1494820       -0.7256570       -1.3474320
 Cl       -0.8982730       -0.3387720        1.8775700
 Cl        1.8602480       -0.0863960       -2.0111470
 H       -1.8546890       -0.2737740       -2.0474180
 H       -1.1439870       -1.8379950       -1.3082650
 C       -0.1746490        1.9648780       -0.3258220
 N        0.6625620        2.7971970        0.4149670
 N       -1.0633010        2.7624920       -1.0239660
 C        0.5203910        4.2532360        0.0288450
 C        1.6197870        2.2873290        1.4017270
 C       -0.8356250        4.2507390       -0.7867560
 H        0.3971560        4.8345630        0.9481850
 H       -0.6632090        4.7032710       -1.7700030
 C        1.5011210        2.5464440        2.8043730
 C        2.6977000        1.5003210        0.9226740
 C        2.5067620        2.0139980        3.6513770
 C        3.5695520        1.2261800        3.1728740
 H        2.4395680        2.2023160        4.7228390
 C        3.6579540        0.9559750        1.7944620
 H        4.4645690        0.3426130        1.3907360
 C       -2.1670260        2.2555320       -1.8260130
 C       -2.1868540        2.3311350       -3.2511770
 C       -3.2602120        1.6770510       -1.1293100
 C       -3.3598710        1.8733690       -3.9108020
 C       -4.4570550        1.3339640       -3.2156920
 H       -3.4046150        1.9281050       -4.9984920
 C       -4.3991480        1.2162230       -1.8102040
 H       -5.2239920        0.7713750       -1.2520950
 C       -1.0050930        2.8312200       -4.0955000
 C       -1.3619080        4.0929100       -4.9335320
 C       -0.4394590        1.7085260       -5.0136360
 H       -0.1969490        3.1001030       -3.4082810
 H       -2.1229280        3.8701350       -5.6959780
 H       -0.4678150        4.4630740       -5.4585250
 H       -1.7502260        4.9086460       -4.3064490
 H        0.4422110        2.0803810       -5.5581430
 H       -1.1783020        1.3797300       -5.7593310
 H       -0.1227640        0.8365820       -4.4276620
 H       -3.1960630        1.5665760       -0.0497870
 C        1.8002030        4.8771710       -0.7170250
 C        2.2737190        4.0284740       -1.9274120
 C        1.4883250        6.3166620       -1.2329600
 C        2.9786130        5.0348110        0.2952690
 H        1.5585940        4.0667220       -2.7587560
 H        2.4342330        2.9777370       -1.6728690
 H        3.2256630        4.4295520       -2.3066060
 H        2.3919570        6.7192540       -1.7141310
 H        1.2187570        7.0011110       -0.4178830
 H        0.6894290        6.3416290       -1.9857690
 H        3.7994620        5.5886300       -0.1845480
 H        3.3831020        4.0773950        0.6326610
 H        2.6726390        5.6086960        1.1831710
 H       -5.3374920        0.9938420       -3.7634280
 C       -2.0646060        5.0713980       -0.1550340
 C       -2.6244510        4.4558050        1.1575950
 C       -1.6196550        6.5346130        0.1617690
 C       -3.2235680        5.2102600       -1.1941110
 H       -2.7903950        3.3770960        1.0840630
 H       -3.5892840        4.9254800        1.4003310
 H       -1.9586320        4.6389940        2.0085910
 H       -1.3111730        7.0765800       -0.7418310
 H       -0.8041810        6.5895790        0.8934880
 H       -2.4751520        7.0753680        0.5928060
 H       -3.9564590        5.9407700       -0.8197460
 H       -3.7574850        4.2743980       -1.3710470
 H       -2.8565420        5.5844080       -2.1610880
 C        0.3523490        3.3383800        3.4447660
 C        0.8380260        4.6871270        4.0521730
 C       -0.4165750        2.5100600        4.5136620
 H       -0.3693110        3.5607550        2.6548620
 H        1.5270540        4.5193890        4.8930090
 H       -0.0181620        5.2633940        4.4365580
 H        1.3650190        5.3091760        3.3142860
 H       -1.2933400        3.0770720        4.8649300
 H        0.2074490        2.2915450        5.3925760
 H       -0.7649030        1.5588900        4.0947340
 H        2.7977290        1.3226820       -0.1432320
 H        4.3098440        0.8254270        3.8672140
