101
M00000361_2D_DFT last geometry from G09 out file
 Ru        0.2648050        0.1064270       -0.4433300
 C       -1.2610260       -0.6866030       -1.0177110
 Cl        0.1562860       -0.5478130        1.8854840
 Cl        1.2673130        0.1065950       -2.6852600
 H       -2.1893020       -0.2364210       -1.3721560
 H       -1.1961730       -1.7967900       -1.0622170
 C       -0.0694420        2.0379560       -0.3177370
 N        0.9489900        2.8781890        0.1473950
 N       -1.1472330        2.8071180       -0.7287830
 C        0.6344250        4.3534340       -0.1193730
 C        1.9863840        2.4410910        1.1156820
 C       -0.8503410        4.3133640       -0.6764920
 H        0.6537270        4.8686740        0.8501240
 H       -0.8307910        4.6550950       -1.7186580
 C        1.7223650        2.5722840        2.5200410
 C        3.2605970        1.8998180        0.7168650
 C        2.6967870        2.2044990        3.4667300
 C        3.9666760        1.6924400        3.0976400
 H        2.4280670        2.2800330        4.5166110
 C        4.2032800        1.5495910        1.7049880
 H        5.1477580        1.1391340        1.3685740
 C       -2.3519220        2.2863200       -1.3775310
 C       -2.4881890        2.3696940       -2.8024100
 C       -3.4281650        1.7316980       -0.6065980
 C       -3.7055010        2.0017320       -3.4081400
 C       -4.8192250        1.5273400       -2.6599690
 H       -3.7780570        2.0750880       -4.4872760
 C       -4.6293380        1.3794110       -1.2577370
 H       -5.4296570        0.9712150       -0.6493810
 C       -1.3432910        2.8552690       -3.6968450
 C       -1.2428540        2.2126760       -5.1003910
 H       -0.3961860        2.6693110       -3.1849080
 H       -1.4281700        3.9499180       -3.8282320
 H       -0.3222360        2.5601070       -5.5943420
 H       -2.0841380        2.4798080       -5.7573010
 H       -1.1868120        1.1178310       -5.0289730
 C       -3.3630160        1.4951220        0.9087860
 C       -3.8866410        0.1271050        1.4167350
 H       -3.9581350        2.2781850        1.4089240
 H       -2.3332170        1.6023960        1.2579890
 H       -3.3318740       -0.7085060        0.9722400
 H       -4.9576800       -0.0211030        1.2159550
 H       -3.7456520        0.0700040        2.5069510
 C        1.7230090        5.0973310       -1.0431120
 C        3.0382440        5.2836270       -0.2226250
 C        1.9879550        4.3470810       -2.3796280
 C        1.3016140        6.5442780       -1.4485620
 H        3.7731420        5.8403060       -0.8237390
 H        3.4981720        4.3453840        0.0846620
 H        2.8472610        5.8714420        0.6893200
 H        2.9103680        4.7295140       -2.8418410
 H        1.1758230        4.5198710       -3.0982950
 H        2.0969120        3.2712840       -2.2527890
 H        2.0980250        6.9613500       -2.0835030
 H        1.1910680        7.2133500       -0.5868200
 H        0.3782640        6.5714330       -2.0384280
 N       -6.0359290        1.2035530       -3.2766850
 C       -6.1794830        1.3077550       -4.7349400
 C       -7.1524450        0.6735170       -2.4832260
 H       -7.2023670        1.0378310       -5.0223030
 H       -5.4897630        0.6316240       -5.2717820
 H       -5.9937360        2.3358250       -5.0906650
 H       -6.9076350       -0.2956280       -2.0115270
 H       -8.0219650        0.5182110       -3.1324870
 H       -7.4538200        1.3737070       -1.6852820
 C       -1.9628760        5.2439390        0.0291080
 C       -2.3036760        4.8535950        1.4912680
 C       -1.5034910        6.7343300        0.0891380
 C       -3.2719770        5.2560140       -0.8251080
 H       -1.5106940        5.1591360        2.1817180
 H       -2.4759840        3.7861640        1.6139050
 H       -3.2193210        5.3791680        1.8025100
 H       -2.2828580        7.3100570        0.6105480
 H       -1.3815210        7.1803850       -0.9048770
 H       -0.5737540        6.8692560        0.6531260
 H       -3.8305630        4.3197490       -0.7698800
 H       -3.0605020        5.4619710       -1.8850590
 H       -3.9313950        6.0589110       -0.4612740
 C        0.3846260        3.0229850        3.1033670
 C        0.4637470        4.2808750        4.0083210
 H       -0.0151690        2.1872260        3.6995460
 H       -0.3397840        3.1887350        2.3079460
 H        0.8461530        5.1565660        3.4612360
 H        1.1275650        4.1206360        4.8694120
 H       -0.5321760        4.5331180        4.4049240
 C        3.7037740        1.7070970       -0.7377670
 C        4.6197200        0.4939480       -1.0319880
 H        4.2346840        2.6149430       -1.0699670
 H        2.8299720        1.6131450       -1.3815620
 H        4.7235570        0.3810910       -2.1213290
 H        4.1903370       -0.4397390       -0.6420440
 H        5.6325590        0.6084950       -0.6171280
 N        4.9290520        1.3345700        4.0520090
 C        4.6193930        1.4264950        5.4847530
 C        6.1900270        0.7076350        3.6337120
 H        4.3381810        2.4537200        5.7721940
 H        5.5055030        1.1519630        6.0692730
 H        3.7956610        0.7512170        5.7810910
 H        6.0260800       -0.2506690        3.1082150
 H        6.8081020        0.5048490        4.5162980
 H        6.7707350        1.3671470        2.9663580
