79
M00000360_2D_DFT last geometry from G09 out file
 Ru        0.3424020        0.3571020       -0.2240600
 C       -1.1619220       -0.5328430       -0.7059980
 Cl        0.2978950       -0.0610720        2.1522960
 Cl        1.3360280        0.2502270       -2.4571080
 H       -2.1215340       -0.1614540       -1.0671710
 H       -1.0404790       -1.6381770       -0.6710700
 C       -0.0323120        2.2797520       -0.2278800
 N        0.9610010        3.1802690        0.1832440
 N       -1.1156590        2.9993770       -0.7108480
 C        0.6336680        4.6188510       -0.2265950
 C        1.9800420        2.8881590        1.2204210
 C       -0.8453810        4.5092810       -0.7887450
 H        0.6361160        5.2263880        0.6878280
 H       -0.8187860        4.7586710       -1.8561420
 C        1.6595580        3.2078840        2.5812840
 C        3.2732470        2.3398220        0.9160840
 C        2.6368270        3.0671950        3.5921400
 C        3.9081240        2.5886570        3.2676490
 H        2.3836210        3.3080200        4.6230680
 C        4.2205410        2.2072440        1.9624690
 H        5.2058700        1.8070490        1.7432060
 C       -2.2996290        2.3995400       -1.3256230
 C       -2.4050720        2.3690940       -2.7530240
 C       -3.3653110        1.8818590       -0.5125510
 C       -3.6004400        1.9026520       -3.3513120
 C       -4.6596090        1.4685730       -2.5468730
 H       -3.6862430        1.8778750       -4.4360600
 C       -4.5482220        1.4356190       -1.1527200
 H       -5.3761750        1.0620140       -0.5562280
 C       -1.2880980        2.7954480       -3.6891020
 H       -1.3111780        3.8795440       -3.8849900
 H       -1.3979050        2.2944350       -4.6595530
 H       -0.3044650        2.5302640       -3.2960720
 C       -3.3220630        1.7862170        1.0165400
 C       -3.8383980        0.4626750        1.6367040
 H       -3.9353610        2.6042710        1.4305380
 H       -2.2995620        1.9406370        1.3686650
 H       -4.9032380        0.2820300        1.4322960
 H       -3.7182330        0.5091500        2.7294050
 H       -3.2652560       -0.4031030        1.2823870
 C        1.7246380        5.2787100       -1.2104920
 C        3.0321750        5.5636020       -0.4064620
 C        2.0197120        4.3996890       -2.4581850
 C        1.2833350        6.6706450       -1.7607080
 H        3.7385060        6.1206760       -1.0397690
 H        3.5388430        4.6618540       -0.0642300
 H        2.8243510        6.1864640        0.4778340
 H        2.9290740        4.7648650       -2.9581020
 H        1.2064880        4.4624840       -3.1929210
 H        2.1698560        3.3484000       -2.2166550
 H        2.0749710        7.0332700       -2.4331180
 H        1.1608790        7.4212720       -0.9707770
 H        0.3618010        6.6261370       -2.3522750
 Cl       -6.2022770        0.9047430       -3.3296840
 C       -1.9768220        5.4821060       -0.1764590
 C       -2.3272580        5.2255060        1.3132580
 C       -1.5350460        6.9772070       -0.2533950
 C       -3.2797160        5.3960140       -1.0363900
 H       -2.4977600        4.1734640        1.5340020
 H       -3.2467660        5.7738650        1.5669000
 H       -1.5413600        5.5947440        1.9818300
 H       -2.3249310        7.5895900        0.2059840
 H       -1.4100450        7.3301900       -1.2836260
 H       -0.6117110        7.1763950        0.3022100
 H       -3.8352370        4.4675710       -0.8878550
 H       -3.0650530        5.4964140       -2.1107530
 H       -3.9484380        6.2247790       -0.7600490
 C        0.2927560        3.6674830        3.0478550
 H        0.0852280        3.2625970        4.0468720
 H       -0.5015560        3.3276010        2.3859620
 H        0.2396260        4.7643590        3.1250960
 C        3.7471340        1.9096830       -0.4733870
 C        4.5731320        0.5995080       -0.5281770
 H        4.3638340        2.7174000       -0.9032450
 H        2.8951140        1.7894070       -1.1414820
 H        4.0488470       -0.2300500       -0.0333100
 H        5.5662740        0.6995590       -0.0670760
 H        4.7254990        0.3169570       -1.5797410
 Cl        5.1661950        2.4306430        4.5728220
