85
M00000359_2D_DFT last geometry from G09 out file
 Ru        0.3352530        0.5328390       -0.3384950
 C       -1.1438810       -0.3971510       -0.8219390
 Cl        0.3154150       -0.0517890        2.0152820
 Cl        1.2552770        0.6615710       -2.5933940
 H       -2.1448510       -0.0824870       -1.1170100
 H       -0.9521010       -1.4936130       -0.8486720
 C       -0.0611340        2.4565250       -0.2742710
 N        0.9255230        3.3363770        0.1808640
 N       -1.1214150        3.1952370       -0.7646820
 C        0.6002820        4.8026310       -0.1465760
 C        1.9239990        2.9284250        1.1888030
 C       -0.8671490        4.7139510       -0.7715360
 H        0.5579750        5.3464100        0.8044690
 H       -0.7973310        4.9938580       -1.8291480
 C        1.6533850        3.1934820        2.5721390
 C        3.1245980        2.2047420        0.8630160
 C        2.5888730        2.8088250        3.5624370
 C        3.7506450        2.1209770        3.2179980
 H        2.3663240        3.0052730        4.6089910
 C        4.0107450        1.7883630        1.8884250
 H        4.8943280        1.2140350        1.6278560
 C       -2.2856990        2.5890860       -1.3878220
 C       -2.4415340        2.6251510       -2.8113470
 C       -3.2888190        1.9482460       -0.5889210
 C       -3.6307390        2.1093430       -3.3824220
 C       -4.6216020        1.5373320       -2.5770980
 H       -3.7703860        2.1431420       -4.4589290
 C       -4.4543580        1.4196460       -1.1938800
 H       -5.2023820        0.9280140       -0.5795210
 C       -1.3699680        3.2012810       -3.7368580
 C       -1.2821620        2.5830030       -5.1511010
 H       -0.3951290        3.0768640       -3.2582300
 H       -1.5392860        4.2877220       -3.8462930
 H       -2.1604760        2.8055430       -5.7750050
 H       -1.1521090        1.4931530       -5.1002900
 H       -0.4041450        2.9967640       -5.6691690
 C       -3.1928400        1.7900060        0.9081980
 O       -3.7597090        0.5803070        1.3050020
 O       -2.7156290        2.6072410        1.7203420
 C       -3.7053360        0.2645110        2.7551760
 H       -4.1982340       -0.7096910        2.8390810
 H       -2.6593160        0.2074680        3.0783030
 H       -4.2411880        1.0300900        3.3329240
 C        1.7268920        5.5359860       -1.0234210
 C        3.0640670        5.5737840       -0.2179300
 C        1.9323090        4.8751510       -2.4140400
 C        1.3828070        7.0351340       -1.2765060
 H        3.7709740        6.2450510       -0.7271720
 H        3.5470270        4.6021480       -0.1539600
 H        2.9103190        5.9697890        0.7983790
 H        2.8488410        5.2691270       -2.8758260
 H        1.1014660        5.1120430       -3.0945100
 H        2.0463040        3.7925950       -2.3529330
 H        2.2359290        7.4937040       -1.7973850
 H        1.2353300        7.5963210       -0.3420930
 H        0.5093370        7.1729440       -1.9189760
 Cl       -6.1387060        0.9004990       -3.3460440
 C       -2.0272690        5.6885320       -0.1849640
 C       -2.1038410        5.7861850        1.3614400
 C       -1.8032610        7.1402880       -0.7182250
 C       -3.4456770        5.2960280       -0.7070980
 H       -1.1948340        6.2217070        1.7936710
 H       -2.3003220        4.8168780        1.8215540
 H       -2.9325150        6.4586520        1.6315810
 H       -2.6707210        7.7518250       -0.4314730
 H       -1.7281770        7.1786640       -1.8151290
 H       -0.9215970        7.6191690       -0.2872260
 H       -3.4724020        5.1548400       -1.7958890
 H       -4.1400010        6.1157000       -0.4714470
 H       -3.8385700        4.4003950       -0.2253310
 C        0.3541450        3.7826260        3.1101550
 C        0.5282610        5.1003490        3.9098540
 H       -0.0927780        3.0265420        3.7752890
 H       -0.3702170        3.9185550        2.3117130
 H       -0.4492730        5.4526310        4.2707300
 H        0.9737230        5.8991360        3.2978290
 H        1.1733920        4.9646880        4.7896350
 C        3.6832730        1.8751890       -0.5079190
 O        4.0732640        0.5388220       -0.5495410
 O        3.9134750        2.6788710       -1.4321170
 C        4.7905290        0.0904750       -1.7686030
 H        5.7241570        0.6581890       -1.8881130
 H        4.9934030       -0.9702540       -1.5877480
 H        4.1495730        0.2268720       -2.6460240
 Cl        4.9167500        1.6115690        4.5121240
