64
M00000166_2D_DFT last geometry from G09 out file
 Ru        0.4821700       -0.9967410        0.0174500
 C        2.1952950       -1.1596850       -0.5663720
 Cl       -0.6068740       -1.9642800       -1.8974140
 Cl        0.7453250       -0.9175040        2.4084850
 H        2.8067760       -0.4088310       -1.0750520
 H        2.6563000       -2.1591410       -0.4271560
 C        0.1803070        0.8886670       -0.2470930
 N        1.0812230        1.9251690       -0.4542090
 N       -1.1109790        1.4614730       -0.2275520
 C        0.4068370        3.2248050       -0.7277640
 C        2.5058280        1.9696200       -0.1764750
 C       -1.0752820        2.9362580       -0.3987930
 H        0.5257400        3.5156740       -1.7792600
 H        0.8401470        4.0125380       -0.1013930
 H       -1.7415480        3.2430390       -1.2158220
 C        2.9220530        1.8883420        1.1742820
 C        3.4490880        2.1712690       -1.2260910
 C        4.2852980        1.9936080        1.5055830
 C        5.2366000        2.1973270        0.4830420
 H        4.5971210        1.9148980        2.5476580
 C        4.8151920        2.2821150       -0.8578200
 H        5.5604980        2.4203440       -1.6432860
 C       -2.3758330        0.7577520       -0.4585160
 C       -2.8286710        0.7130210       -1.8006400
 C       -3.1491520        0.1921520        0.5948950
 C       -4.0446430        0.0971740       -2.1332540
 C       -4.8116920       -0.4994260       -1.1097670
 H       -4.3715860        0.0549350       -3.1727450
 C       -4.3607320       -0.4515350        0.2200170
 H       -4.9619540       -0.9224700        0.9977660
 H       -2.2002170        1.1283790       -2.5894170
 C       -2.7472910        0.2226550        2.0663940
 C       -3.8240960        0.7962470        3.0312200
 H       -2.5137020       -0.8057300        2.3884090
 H       -1.8193240        0.7879730        2.1952620
 C       -3.3217870        0.8638700        4.4938880
 H       -4.1204200        1.8034270        2.6997930
 H       -4.7338700        0.1745300        2.9981360
 C       -4.3818940        1.4089560        5.4763190
 H       -2.4206110        1.4992540        4.5398930
 H       -3.0051560       -0.1426610        4.8190520
 H       -3.9876650        1.4458520        6.5042300
 H       -5.2827850        0.7741300        5.4867230
 H       -4.6946940        2.4290610        5.2010400
 C       -1.5566750        3.7434160        0.8337610
 F       -2.9276950        3.5789400        1.0976470
 F       -0.8609480        3.4431970        2.0210930
 F       -1.3663560        5.1328400        0.5902980
 H       -5.7493290       -1.0040120       -1.3487250
 H        2.1791270        1.7181210        1.9504670
 C        3.0687370        2.2232160       -2.7039720
 C        3.2234980        3.6253680       -3.3636440
 H        3.7152100        1.5202080       -3.2564550
 H        2.0400450        1.8638740       -2.8458810
 C        2.8378410        3.6301230       -4.8625000
 H        2.6077790        4.3646060       -2.8239850
 H        4.2668810        3.9651240       -3.2574150
 C        2.9942670        5.0147810       -5.5292410
 H        1.7942320        3.2864560       -4.9751050
 H        3.4616200        2.8945780       -5.4000620
 H        2.7129730        4.9757920       -6.5931410
 H        4.0352850        5.3706370       -5.4719190
 H        2.3561860        5.7696340       -5.0422680
 H        6.2968850        2.2803920        0.7272990
