74
Mol_000081_2D_DFT last geometry from G09 out file
Ru       -0.3206670       -0.1360630        0.3335960
C        1.4821460       -0.4102180        0.1157670
Cl       -0.8619680       -0.6260560       -2.0125890
Cl       -0.1926950       -0.7381310        2.7316450
H        2.2881580        0.3195270       -0.0238500
H        1.8291840       -1.4653380        0.1476930
C       -0.4243020        1.7892600        0.2403110
N        0.4783650        2.7930720        0.5568290
N       -1.6165600        2.4354930       -0.1537420
C       -0.1072130        4.1607700        0.4590740
C        1.8895890        2.7277350        0.8824550
C       -1.5972300        3.9182170        0.1374870
H        0.4053070        4.7192190       -0.3351730
H        0.0139210        4.6763010        1.4173030
H       -1.8854000        4.4637970       -0.7649640
C        2.3069010        2.5390990        2.2311890
C        2.8515870        3.0238970       -0.1528460
C        3.6977120        2.5226610        2.5147470
C        4.6475500        2.7579010        1.5093440
H        4.0252930        2.3397870        3.5386200
C        4.2279530        3.0262940        0.1935520
H        4.9741610        3.2210290       -0.5746760
C       -2.7499690        1.8527840       -0.8334180
C       -3.1776500        2.3956890       -2.0858890
C       -3.4461510        0.7350110       -0.2763900
C       -4.4130670        1.9637110       -2.6259810
C       -5.1607180        0.9460600       -2.0141890
H       -4.7657570        2.3972580       -3.5617340
C       -4.6520090        0.3064660       -0.8699720
H       -5.1980720       -0.5325510       -0.4453730
C       -2.3056040        3.3343640       -2.9284390
C       -2.0785340        2.8315360       -4.3797170
H       -1.3168170        3.4355970       -2.4689670
H       -2.7506880        4.3456780       -2.9733940
H       -1.3875660        3.5104350       -4.9049240
H       -3.0088520        2.7944770       -4.9629310
H       -1.6390080        1.8246440       -4.3746290
N       -2.8658180        0.0148000        0.8602930
C       -3.1911160        0.6819050        2.1680440
C       -3.2383460       -1.4361030        0.9270070
H       -2.6915100        0.1381780        2.9743280
H       -4.2836830        0.6880860        2.3387750
H       -2.8221680        1.7071220        2.1676940
H       -3.0596230       -1.9068550       -0.0459590
H       -4.2912600       -1.5950350        1.2242990
H       -2.5962210       -1.9080170        1.6793040
C       -2.5774790        4.3513290        1.2413230
C       -3.8832860        4.7848120        0.9050430
N       -2.1390150        4.3211620        2.5346110
C       -4.7614570        5.1903190        1.9310980
H       -4.2076570        4.7990080       -0.1348660
C       -4.3116420        5.1578280        3.2677430
H       -5.7712430        5.5265880        1.6917290
C       -2.9938470        4.7168020        3.5168520
H       -4.9549350        5.4666180        4.0919240
H       -2.6002650        4.6767870        4.5344980
H       -6.1086710        0.6212530       -2.4457470
C        1.3343830        2.4197040        3.4009940
C        1.4177680        3.6158080        4.3876680
H        1.5492980        1.4903840        3.9481140
H        0.3064150        2.3275610        3.0452730
H        0.7068910        3.4627130        5.2149200
H        1.1591950        4.5647240        3.8943310
H        2.4215880        3.7243990        4.8244780
N        2.4435880        3.3931880       -1.4817020
C        3.3097210        4.3415040       -2.2103480
C        1.8835850        2.3513670       -2.3750960
H        4.2052940        3.8743770       -2.6713940
H        3.6438210        5.1445540       -1.5407170
H        2.7235370        4.7946790       -3.0249740
H        2.6789700        1.7130530       -2.8132800
H        1.3451050        2.8319920       -3.2055150
H        1.1849730        1.7025000       -1.8496600
H        5.7134850        2.7380930        1.7443890
