53
Mol_000077_2D_DFT last geometry from G09 out file
Ru       -0.1553810        0.1602210        0.7902280
C        1.6357120       -0.2238670        0.5876110
Cl       -0.7041960       -0.9115540       -1.3573210
Cl       -0.0014570        0.3889400        3.2511940
H        2.4276340        0.3652930        0.1075640
H        1.9856020       -1.2080460        0.9666890
C       -0.1760920        1.9584280        0.1376590
N        0.8085350        2.9441460        0.1512960
N       -1.3058830        2.5421840       -0.4898540
C        0.2862710        4.2707980       -0.2872140
C        2.1381660        2.9395330        0.7149140
C       -0.9788310        3.8842750       -1.0541090
H        1.0250830        4.7802190       -0.9139390
H        0.0705970        4.8886360        0.6007430
H       -0.7723160        3.8104860       -2.1338400
C        2.2982280        2.8051930        2.1104910
C        3.2744000        3.2241630       -0.1238310
C        3.5628300        2.9374820        2.7161660
C        4.6810660        3.2372660        1.9132540
H        3.6621450        2.8181130        3.7951720
C        4.5355240        3.3758270        0.5197600
H        5.4200080        3.5804470       -0.0803560
C       -2.5229370        1.9042030       -0.8972310
C       -3.1400780        2.3277960       -2.1024530
C       -3.1626500        0.8826210       -0.1295110
C       -4.3316030        1.7441430       -2.5691690
C       -4.9368460        0.7116740       -1.8317950
H       -4.7659640        2.0867390       -3.5093240
C       -4.3507100        0.3003750       -0.6193400
H       -4.8339840       -0.4904750       -0.0511880
H       -2.6757080        3.0975880       -2.7130740
N       -2.5917330        0.4909060        1.1640800
C       -2.9382240        1.5347100        2.1998420
C       -3.0123390       -0.8616920        1.6587260
H       -2.5685070        2.5139280        1.8800540
H       -2.4555930        1.2722080        3.1444730
H       -4.0331160        1.5904530        2.3331450
H       -2.8210250       -1.6112670        0.8828790
H       -4.0777920       -0.8951110        1.9490090
H       -2.4095820       -1.0943250        2.5440050
H       -1.8102940        4.5831780       -0.8978960
H       -5.8523100        0.2352130       -2.1843750
H        1.4247720        2.5843190        2.7177110
N        3.1436000        3.4149320       -1.5349000
C        4.1801670        4.2007160       -2.2293770
C        2.6149790        2.3087530       -2.3694390
H        4.4276200        5.1017070       -1.6531090
H        3.7843350        4.5184200       -3.2057380
H        5.1168480        3.6371260       -2.4195680
H        1.8014860        1.7841930       -1.8679310
H        3.4031950        1.5683830       -2.6142560
H        2.2281820        2.7139770       -3.3169970
H        5.6690640        3.3514320        2.3633720
