63
Mol_000159_2D_DFT last geometry from G09 out file
 Ru       -0.0208390        0.1638770        0.9352240
 C       -1.4558200       -0.6216280        0.1371650
 Cl       -0.7908360        0.5348450        3.1875860
 Cl        1.7032170       -0.7671590       -0.4549990
 H       -2.1274820       -0.1995570       -0.6144960
 H       -1.6261350       -1.6811270        0.4196390
 C       -0.1504120        1.9757380        0.3052200
 N        0.9765090        2.8524620        0.3940940
 N       -1.2045970        2.7475160       -0.1736490
 C        2.2700380        2.5143240        0.9757160
 C        0.6012690        4.2157190        0.1531580
 C        3.4918710        2.4845450        0.2039250
 C        2.2958340        2.3104110        2.3742270
 C        4.6840450        2.2395780        0.9524380
 C        4.7047420        2.0288180        2.3450450
 H        5.6377030        2.1706540        0.4374200
 C        3.4858850        2.0561300        3.0693050
 H        3.4525570        1.9035280        4.1452900
 C       -0.7726380        4.1311150       -0.5041130
 H       -1.4597010        4.8798240       -0.1003960
 H       -0.6839420        4.2744430       -1.5901880
 C       -2.5058820        2.3142590       -0.6456590
 C       -2.5953350        2.0339470       -2.0308420
 C       -3.6681290        2.1730600        0.2028340
 C       -3.7713610        1.5601970       -2.6286090
 C       -4.9146030        1.3554510       -1.8099680
 H       -3.7837040        1.3415540       -3.6937580
 C       -4.8432360        1.6637680       -0.4379090
 H       -5.7550090        1.5331720        0.1386730
 H       -1.6947700        2.1477500       -2.6365060
 N       -3.7149930        2.4680910        1.5646650
 C       -2.9435760        3.5551200        2.1949870
 C       -4.6842930        1.7881140        2.4448900
 H       -3.5105010        3.9269090        3.0597390
 H       -2.8277720        4.4025230        1.5087190
 H       -1.9584830        3.2277610        2.5501850
 H       -4.8844030        0.7695620        2.0904140
 H       -5.6445980        2.3306600        2.5243630
 H       -4.2486150        1.7018990        3.4490530
 F        0.5479170        4.9859140        1.3866960
 F        1.5365010        4.9480370       -0.6371510
 C       -6.2298600        0.8394170       -2.3543840
 C       -6.3508990        0.5345420       -3.8458980
 O       -7.2163780        0.6630550       -1.5869810
 H       -5.6215000       -0.2289910       -4.1580980
 H       -7.3619410        0.1675030       -4.0540330
 H       -6.1651520        1.4350320       -4.4519620
 N        3.6008710        2.7147200       -1.1712560
 C        2.5935960        2.3469940       -2.1794440
 C        4.8791260        3.1706860       -1.7434360
 H        3.0741500        1.7479320       -2.9707250
 H        2.1478890        3.2403990       -2.6496910
 H        1.8128890        1.7229900       -1.7488710
 H        5.5621270        2.3368020       -1.9917270
 H        5.3948330        3.8546290       -1.0574030
 H        4.6708720        3.7240260       -2.6706430
 H        1.3599480        2.3791560        2.9230790
 C        6.0411620        1.7657260        3.0026900
 C        6.0845180        1.4471880        4.4959740
 O        7.1098540        1.8069890        2.3308060
 H        5.4761280        0.5604030        4.7310770
 H        7.1227850        1.2600560        4.7916920
 H        5.6885590        2.2850450        5.0910070
