73
Mol_000152_2D_DFT last geometry from G09 out file
 Ru       -0.4604390        0.0722910        0.4663720
 C       -1.5678640       -0.6264220       -0.7942740
 Cl       -1.9299520        0.3288820        2.3470230
 Cl        1.6283980       -0.8359920       -0.2992720
 H       -1.9929880       -0.1544090       -1.6824960
 H       -1.8141680       -1.6981490       -0.6415270
 C       -0.3149540        1.9525470       -0.0067360
 N        0.6842530        2.7822420        0.5318410
 N       -1.1455340        2.7688830       -0.7727340
 C        0.5568500        4.2230150        0.1002520
 C        1.9685020        2.3729370        1.0786840
 C        0.5023240        5.2459210        1.2710620
 C       -0.7113380        4.2145930       -0.8015490
 H        1.4378720        4.4674820       -0.5063910
 C       -0.8582770        5.3360830        1.9268840
 H        1.2980600        5.0178590        1.9883620
 H        0.7684850        6.2269100        0.8339790
 C       -1.9618240        5.3353470        1.1428040
 H       -0.9302950        5.3949270        3.0139350
 C       -1.8001470        5.2388140       -0.3595940
 H       -2.9650110        5.3872790        1.5659930
 H       -2.7509920        5.0152700       -0.8573720
 H       -1.4739620        6.2173090       -0.7603830
 H       -0.4358040        4.4555160       -1.8373050
 C        2.1958450        2.1308620        2.4729480
 C        3.1012370        2.3134900        0.2073630
 C        3.5150080        1.8261790        2.8958830
 C        4.6148580        1.7692420        2.0179440
 H        3.6734240        1.6345410        3.9533430
 C        4.3917930        2.0216020        0.6437050
 H        5.2261180        1.9692890       -0.0515330
 C       -2.1787910        2.3675970       -1.7012630
 C       -1.8609990        2.1274930       -3.0835220
 C       -3.5448520        2.2874100       -1.3078280
 C       -2.9110360        1.8174750       -3.9752170
 C       -4.2602590        1.7261770       -3.5675150
 H       -2.6941100        1.6303170       -5.0242740
 C       -4.5706920        1.9622910       -2.2094440
 H       -5.5913540        1.9035350       -1.8415980
 C        1.0985880        2.1754380        3.5516680
 C        1.3206720        3.3383250        4.5641890
 C        1.0089650        0.8313160        4.3323380
 H        0.1324230        2.3371410        3.0610040
 H        2.2427700        3.1976320        5.1476490
 H        0.4808890        3.3694730        5.2745730
 H        1.3842680        4.3179800        4.0737280
 H        0.1246730        0.8434660        4.9842290
 H        1.8933260        0.6700520        4.9672490
 H        0.9086100       -0.0280410        3.6591310
 Cl        2.9311480        2.5935370       -1.5868570
 C        6.0235570        1.4510190        2.4671360
 C        6.2744600        1.0587130        3.9211620
 O        6.9789250        1.5069560        1.6454590
 H        5.6848560        0.1723020        4.2015170
 H        7.3393420        0.8364010        4.0509210
 H        5.9955200        1.8735350        4.6077840
 C       -0.4260530        2.1827670       -3.6349530
 C       -0.2610030        3.3298530       -4.6751660
 C        0.0219810        0.8242550       -4.2474050
 H        0.2564970        2.3846870       -2.8042750
 H       -0.8610200        3.1483930       -5.5786290
 H        0.7925200        3.4041520       -4.9841740
 H       -0.5637790        4.3059820       -4.2666270
 H        1.0670720        0.9000030       -4.5822450
 H       -0.5883630        0.5413000       -5.1173410
 H       -0.0267590        0.0128300       -3.5100020
 Cl       -4.0628040        2.5825950        0.3993930
 C       -5.3166390        1.3841810       -4.5964320
 C       -6.7724950        1.2474760       -4.1588400
 O       -4.9905710        1.2143560       -5.8030340
 H       -7.1479960        2.1859740       -3.7216970
 H       -7.3841300        0.9928100       -5.0311960
 H       -6.8886360        0.4597040       -3.3982040
