67
Mol_000250_2D_DFT last geometry from G09 out file
 Ru        0.1558740       -0.5063890        0.1162560
 C       -1.4250520       -1.2240220       -0.4281800
 Cl       -0.0880080       -0.7769820        2.4863390
 Cl        1.3910800       -0.9446960       -1.8887620
 H       -2.3080630       -0.7229410       -0.8261290
 H       -1.4602700       -2.3316070       -0.3683530
 C       -0.0919750        1.3693370       -0.0758530
 N        1.0035710        2.2730960        0.0568110
 N       -1.2397080        2.1691170       -0.3076360
 C        2.2607930        1.9534870        0.7559910
 C        0.6039420        3.6087600       -0.3255810
 C        3.5385420        1.8184670        0.1310700
 C        2.1326990        1.8462460        2.1644480
 C        4.6333510        1.5598500        0.9972940
 C        4.5259580        1.4352490        2.3993110
 H        5.6196880        1.4460970        0.5490140
 C        3.2427380        1.5795790        2.9766770
 H        3.1049970        1.4818440        4.0542650
 C       -0.9369940        3.5654390       -0.0608840
 C       -2.4895700        1.7295620       -0.9288180
 C       -3.6903000        1.4743390       -0.2064950
 C       -2.4437350        1.5847600       -2.3374780
 C       -4.8214970        1.0948760       -0.9773720
 C       -4.8052190        0.9541010       -2.3826340
 H       -5.7551950        0.8938740       -0.4519120
 C       -3.5827250        1.1958410       -3.0576630
 H       -3.5201790        1.0836100       -4.1411070
 C       -6.0672910        0.5817430       -3.1508030
 C       -6.8731130        1.8198260       -3.6334230
 H       -6.7198970       -0.0404660       -2.5180880
 H       -5.8009400       -0.0297890       -4.0277300
 H       -6.2705840        2.4516280       -4.3029090
 H       -7.1944380        2.4412520       -2.7842290
 H       -7.7723640        1.5016460       -4.1832670
 Cl        0.8513590        3.8781000       -2.2524030
 Cl        1.5202000        4.9680670        0.4766270
 Cl       -1.9582980        4.7673340       -0.9829920
 Cl       -1.2191390        4.0097450        1.8278830
 C        3.8170590        1.9636960       -1.3737690
 C        4.6601630        0.7907860       -1.9498490
 C        4.5243730        3.3173680       -1.6836830
 H        2.8572920        1.9563060       -1.9013450
 H        4.2228800       -0.1819820       -1.6971780
 H        5.6999370        0.8121560       -1.5910530
 H        4.6914220        0.8707420       -3.0471960
 H        4.6657510        3.4225190       -2.7701610
 H        5.5163560        3.3629240       -1.2091260
 H        3.9413100        4.1780210       -1.3350930
 H        1.1525990        1.9653760        2.6173980
 C        5.7558080        1.1842400        3.2628510
 C        6.4098000        2.4916910        3.7898260
 H        6.5061990        0.6196830        2.6871860
 H        5.4800060        0.5551460        4.1242490
 H        5.7048050        3.0697460        4.4058380
 H        6.7366140        3.1357860        2.9596610
 H        7.2906090        2.2586700        4.4082590
 C       -3.8210590        1.5619940        1.3217530
 C       -4.2410510        0.2061730        1.9587880
 C       -4.8028610        2.6925410        1.7451470
 H       -2.8379030        1.8112520        1.7348350
 H       -3.5209340       -0.5891010        1.7253250
 H       -5.2379860       -0.1185320        1.6257390
 H       -4.2724620        0.3095150        3.0538150
 H       -4.8110460        2.7883470        2.8413610
 H       -5.8322410        2.4786820        1.4203720
 H       -4.5073680        3.6628290        1.3241940
 H       -1.5072130        1.7750480       -2.8587310
