83
Mol_000251_2D_DFT last geometry from G09 out file
 Ru        0.1176330       -0.2654150        0.2002470
 C       -1.2715130       -1.1237080       -0.5950020
 Cl       -0.5751330       -0.2152940        2.5238840
 Cl        1.7309570       -0.8263700       -1.5057970
 H       -2.0272590       -0.7325740       -1.2794960
 H       -1.2899890       -2.2203980       -0.4165140
 C       -0.1992450        1.6362600       -0.1195500
 N        0.8038470        2.5726430        0.1177860
 N       -1.3623230        2.3254830       -0.4366750
 C        2.0318250        2.2369300        0.8412970
 C        0.3490490        4.0173710       -0.2253030
 C        3.3027060        2.0036090        0.2212380
 C        1.9188600        2.1505260        2.2545050
 C        4.3892210        1.6947330        1.0752890
 C        4.2836100        1.6131370        2.4825400
 H        5.3648880        1.4892900        0.6368750
 C        3.0157610        1.8419520        3.0706240
 H        2.8679910        1.7716100        4.1466730
 C       -1.2445690        3.8306970       -0.0624960
 C       -2.4637220        1.7736470       -1.2074040
 C       -3.6495800        1.2201900       -0.6318770
 C       -2.3196990        1.7988830       -2.6214480
 C       -4.6560220        0.7653380       -1.5236380
 C       -4.5339910        0.8265470       -2.9308510
 H       -5.5539290        0.3325150       -1.0856720
 C       -3.3299250        1.3427040       -3.4760520
 H       -3.2070530        1.3703060       -4.5577050
 C       -5.6152430        0.3513900       -3.8732880
 C       -6.8942270       -0.2627030       -3.3056280
 O       -5.4634940        0.4624350       -5.1216730
 H       -7.4295930        0.4529890       -2.6622270
 H       -7.5483030       -0.5519170       -4.1356170
 H       -6.6735240       -1.1534970       -2.6971070
 C        0.8428150        4.2857050       -1.6981410
 C        0.7069200        5.6871700       -2.3554280
 H        1.9100590        4.0556660       -1.6797450
 H        0.3924080        3.5334900       -2.3609760
 H        0.9622810        6.5082890       -1.6738280
 H       -0.2920230        5.8884470       -2.7566190
 H        1.4085010        5.7421780       -3.2030570
 C        0.9131030        5.0829640        0.7670480
 C        2.3920380        5.5328910        0.6749230
 H        0.2911670        5.9798210        0.6381450
 H        0.7386770        4.7347830        1.7903790
 H        3.0963370        4.7294800        0.9079740
 H        2.5538830        6.3320370        1.4160540
 H        2.6583640        5.9455590       -0.3052430
 C       -2.0469310        4.7728950       -1.0129340
 C       -3.5892950        4.8662250       -0.9034720
 H       -1.6477220        5.7829420       -0.8455770
 H       -1.8057520        4.5192580       -2.0501850
 H       -4.0922830        3.9338130       -1.1750680
 H       -3.9367750        5.6391770       -1.6075860
 H       -3.9349960        5.1611870        0.0942780
 C       -1.7805010        3.9249750        1.4196530
 C       -1.9736250        5.2950080        2.1265490
 H       -2.7645930        3.4497920        1.3880500
 H       -1.1651080        3.2763800        2.0571770
 H       -2.4144030        6.0600730        1.4750070
 H       -1.0470010        5.7069710        2.5402020
 H       -2.6652890        5.1540930        2.9725320
 C        3.5846380        2.0077750       -1.2795380
 C        4.6027130        3.0801990       -1.7525000
 H        2.6544890        2.0903030       -1.8463740
 H        3.9887100        1.0187730       -1.5385440
 H        4.7644440        2.9819200       -2.8372020
 H        5.5790090        2.9584200       -1.2617600
 H        4.2596570        4.1052200       -1.5534800
 H        0.9439590        2.2953030        2.7099170
 C        5.5159320        1.2717410        3.2870310
 C        5.3853400        1.0521480        4.7932670
 O        6.6406580        1.1656090        2.7230200
 H        4.6709600        0.2446800        5.0163430
 H        6.3667610        0.7866810        5.2016180
 H        5.0234040        1.9614800        5.2985560
 C       -3.8652830        0.9932770        0.8632180
 C       -5.1033680        1.7024680        1.4722360
 H       -2.9675460        1.2624890        1.4230570
 H       -3.9872070       -0.0912260        1.0221970
 H       -5.0475350        2.7955480        1.3699880
 H       -5.1729650        1.4663480        2.5450460
 H       -6.0420920        1.3744740        1.0016120
 H       -1.3874470        2.1697890       -3.0435590
