95
Mol_000252_2D_DFT last geometry from G09 out file
 Ru        0.5473830       -0.6849740        1.2303570
 C       -0.6590470       -1.5872730        0.2189120
 Cl       -0.7066730       -0.1821280        3.2407510
 Cl        2.4749870       -1.6596970        0.1160570
 H       -1.0889440       -1.2972840       -0.7436400
 H       -0.9004450       -2.6111900        0.5765770
 C        0.4894680        1.1467070        0.5297150
 N        1.4618040        2.0713300        0.8916260
 N       -0.4039760        1.7777980       -0.3211590
 C        2.5421520        1.7512240        1.8187170
 C        1.4602760        3.2855180       -0.0853200
 C        3.6930720        1.1078390        1.3008520
 C        2.4841310        2.0183490        3.2315290
 C        4.7942490        0.7748890        2.1117190
 C        4.7526950        1.0536870        3.4888920
 H        5.6556250        0.2752150        1.6675810
 C        3.5974550        1.6436030        4.0320990
 H        3.5647220        1.8313040        5.1036880
 C       -0.1261690        3.3148070       -0.4047340
 C       -1.6580170        1.1868390       -0.7385830
 C       -2.6342850        0.9553150        0.2611350
 C       -1.9655540        0.8553210       -2.0999950
 C       -3.9041400        0.4366040       -0.0517240
 C       -4.2357270        0.1637770       -1.3942370
 H       -4.6245910        0.2577690        0.7475230
 C       -3.2735770        0.3794270       -2.3968610
 H       -3.5306210        0.1359330       -3.4262950
 H       -5.2213210       -0.2231730       -1.6564350
 C        2.3616040        2.8297600       -1.3007120
 C        2.7445790        3.7988900       -2.4546540
 H        3.3116700        2.5238900       -0.8484010
 H        1.9229060        1.9234540       -1.7354000
 C        3.9300870        3.2342980       -3.2807790
 H        1.9037360        3.9540010       -3.1420880
 H        3.0251580        4.7912740       -2.0719290
 C        4.3123780        4.1213590       -4.4863420
 H        3.6720720        2.2227880       -3.6383380
 H        4.8104700        3.1150920       -2.6247980
 H        5.1582940        3.6891970       -5.0438340
 H        4.6070030        5.1332620       -4.1635390
 H        3.4698040        4.2265530       -5.1889270
 C        1.9785490        4.5987860        0.5820930
 C        3.5012110        4.8005260        0.8147000
 H        1.6345530        5.4298890       -0.0494970
 H        1.4836500        4.7105920        1.5500780
 C        3.7933940        6.2119150        1.3862810
 H        3.8887700        4.0556520        1.5208260
 H        4.0736410        4.6770310       -0.1153580
 C        5.2931200        6.4587110        1.6626870
 H        3.2227830        6.3520130        2.3208230
 H        3.4233670        6.9778700        0.6810310
 H        5.4623440        7.4691290        2.0674670
 H        5.8913730        6.3627010        0.7421480
 H        5.6878170        5.7349660        2.3937280
 C       -0.5291810        3.8543170       -1.8086570
 C       -0.3715250        5.3750200       -2.0821190
 H        0.0122920        3.3006910       -2.5796000
 H       -1.5926040        3.6159130       -1.9476010
 C       -0.9896440        5.7779230       -3.4454410
 H       -0.8539380        5.9666460       -1.2916650
 H        0.6869460        5.6633000       -2.0835830
 C       -0.8299020        7.2804980       -3.7667680
 H       -2.0630470        5.5174770       -3.4515890
 H       -0.5228130        5.1837260       -4.2509690
 H        0.2324310        7.5693830       -3.8099840
 H       -1.3155980        7.9068830       -3.0014390
 H       -1.2832140        7.5296370       -4.7390930
 C       -0.9437770        4.0485110        0.7263580
 C       -2.4540590        4.3489580        0.5206680
 H       -0.8151890        3.4881210        1.6568250
 H       -0.4638700        5.0182030        0.9047150
 C       -3.0766980        4.9662350        1.8001480
 H       -2.6030330        5.0572060       -0.3086180
 H       -3.0192490        3.4471900        0.2606090
 C       -4.5685620        5.3323820        1.6370180
 H       -2.5087380        5.8692350        2.0854950
 H       -2.9627480        4.2586590        2.6391730
 H       -4.9752570        5.7630090        2.5657060
 H       -5.1734420        4.4455140        1.3874900
 H       -4.7149180        6.0727360        0.8336510
 H        3.7069670        0.8195410        0.2570400
 C        1.3498370        2.7137270        3.9606850
 C        1.0215330        2.2714180        5.3884500
 O        0.7174170        3.6733370        3.4478370
 H        0.0018880        2.5976250        5.6227480
 H        1.0970720        1.1857950        5.5147960
 H        1.7020290        2.7594290        6.1061140
 H        5.5916410        0.7970910        4.1371170
 H       -2.3795120        1.1706750        1.2950860
 C       -0.9526520        0.8526780       -3.2254390
 C       -1.4428720        1.0802530       -4.6613470
 O        0.2672110        0.6232430       -3.0152440
 H       -0.5815330        1.3519800       -5.2830720
 H       -1.8674910        0.1514220       -5.0755940
 H       -2.2125630        1.8614780       -4.7261170
