103
Mol_000253_2D_DFT last geometry from G09 out file
 Ru       -0.0403320       -0.8695020       -0.5425950
 C       -1.3348830       -1.7818800       -1.4291270
 Cl       -0.4645800       -1.7719580        1.6629570
 Cl        1.3867740       -0.3448190       -2.4501430
 H       -2.3411030       -1.4744370       -1.7190980
 H       -1.0455790       -2.8251190       -1.6866180
 C       -0.7103010        0.9478600       -0.2737590
 N        0.0606160        1.8521880        0.4497780
 N       -1.8262130        1.6170150       -0.7417530
 C        1.2963380        1.4692430        1.1292600
 C       -0.3585770        3.3056200        0.1336780
 C        2.4859530        1.3378550        0.3701570
 C        1.3380360        1.2282330        2.5379240
 C        3.7088960        0.9977440        0.9742990
 C        3.7851860        0.7792020        2.3683830
 H        4.5972910        0.8871950        0.3499540
 C        2.5878200        0.8921200        3.1126370
 H        2.6178190        0.6895520        4.1853690
 C       -1.9325960        3.0401030       -0.1215800
 C       -2.9111870        0.9842530       -1.4702740
 C       -3.9414360        0.3448890       -0.7376810
 C       -2.9596260        0.9752660       -2.8971140
 C       -5.0425670       -0.2467560       -1.3818370
 C       -5.1405320       -0.2329890       -2.7935110
 H       -5.8172080       -0.7294130       -0.7830530
 C       -4.0836890        0.3705260       -3.5154120
 H       -4.1253360        0.3647510       -4.6066970
 C       -6.3091740       -0.8951990       -3.5139490
 C       -6.0679450       -2.3991450       -3.8218670
 H       -6.5088140       -0.3686790       -4.4610280
 H       -7.2214210       -0.8020180       -2.9029410
 H       -6.9379980       -2.8307920       -4.3409490
 H       -5.9037970       -2.9733940       -2.8977410
 H       -5.1853090       -2.5367750       -4.4643280
 C        0.4620610        3.7161170       -1.1547600
 C        0.4525790        5.1742550       -1.6996640
 H        1.5061530        3.4878840       -0.9076600
 H        0.1951030        3.0304940       -1.9685330
 C        1.6388720        5.4189600       -2.6690420
 H       -0.4770000        5.3940280       -2.2399510
 H        0.5116640        5.9081360       -0.8828140
 C        1.6361930        6.8315290       -3.2941810
 H        1.6132960        4.6639750       -3.4741480
 H        2.5900690        5.2607170       -2.1313270
 H        1.6942380        7.6132250       -2.5194350
 H        0.7197460        7.0091910       -3.8798830
 H        2.4949020        6.9672050       -3.9702410
 C       -0.0937390        4.2957570        1.3082930
 C        1.3540940        4.7647100        1.6222610
 H       -0.6885230        5.1969850        1.0954430
 H       -0.5074540        3.8666880        2.2245760
 C        1.3742510        5.7981110        2.7779320
 H        1.9864970        3.9148440        1.9022620
 H        1.8221760        5.2236790        0.7409890
 C        2.7971730        6.2875530        3.1279570
 H        0.9142180        5.3530580        3.6780960
 H        0.7470420        6.6670980        2.5084730
 H        3.2756910        6.7762510        2.2640590
 H        3.4419200        5.4488580        3.4357030
 H        2.7760980        7.0153440        3.9544160
 C       -2.5632470        4.0879940       -1.0923960
 C       -4.0945770        4.0832400       -1.3654750
 H       -2.3116040        5.0743960       -0.6740330
 H       -2.0452410        4.0226760       -2.0508720
 C       -4.5918830        5.3809320       -2.0619470
 H       -4.3733690        3.2249170       -1.9886590
 H       -4.6566090        3.9761240       -0.4283730
 C       -4.0929430        5.5969830       -3.5101590
 H       -4.3167430        6.2577410       -1.4482420
 H       -5.6955570        5.3531470       -2.0769760
 H       -4.5582250        6.4926230       -3.9512990
 H       -4.3512040        4.7381910       -4.1502290
 H       -3.0029430        5.7380280       -3.5584410
 C       -2.7940490        2.8859670        1.1929370
 C       -3.2748250        4.1263370        2.0018200
 H       -3.7038880        2.3595830        0.8818660
 H       -2.2681120        2.2025590        1.8706350
 C       -4.3931140        3.7424010        3.0062280
 H       -2.4523930        4.5817270        2.5668870
 H       -3.6602410        4.9108650        1.3347050
 C       -4.8700580        4.9297660        3.8717260
 H       -4.0298050        2.9346180        3.6656740
 H       -5.2545180        3.3254410        2.4552280
 H       -5.6643710        4.6189730        4.5683690
 H       -5.2726770        5.7439700        3.2477280
 H       -4.0444240        5.3454870        4.4714120
 H        2.4456150        1.4653460       -0.7066070
 C        0.1252320        1.2911970        3.4499620
 H        0.2969330        0.6871820        4.3503320
 H       -0.7680230        0.8963090        2.9593610
 H       -0.0823980        2.3201930        3.7830590
 C        5.1057510        0.4401620        3.0486360
 C        5.8879910        1.6943000        3.5279900
 H        5.7434370       -0.1299130        2.3544550
 H        4.9205100       -0.2141740        3.9154080
 H        6.1286430        2.3589420        2.6844970
 H        6.8335350        1.3988490        4.0093520
 H        5.3017490        2.2741440        4.2570930
 H       -3.8573590        0.2769470        0.3448180
 C       -1.8572700        1.5403100       -3.7761090
 H       -1.8556010        2.6398960       -3.7808790
 H       -1.9904470        1.2127720       -4.8158580
 H       -0.8678270        1.2052560       -3.4458850
