95
Mol_000249_2D_DFT last geometry from G09 out file
 Ru        0.2814210       -0.3601550       -0.3832030
 C       -1.1753750       -1.0039700       -1.2579150
 Cl       -0.2456010       -1.1071980        1.8462050
 Cl        1.8333680       -0.7238680       -2.2180790
 H       -1.9988750       -0.4555540       -1.7204840
 H       -1.2018680       -2.1094440       -1.3608630
 C        0.0328750        1.6043760       -0.3009710
 N        1.0337450        2.4256200        0.2417220
 N       -0.9951640        2.4258110       -0.7546710
 C        2.0585410        1.8864500        1.1540670
 C        0.8175010        3.9083550       -0.1973670
 C        3.3088540        1.3620350        0.6463590
 C        1.8256760        1.8396580        2.5801960
 C        4.1657930        0.6516090        1.5198680
 C        3.8358750        0.5127610        2.8661360
 H        5.0891890        0.2119670        1.1585820
 C        2.7128880        1.1208730        3.4163930
 H        2.5227980        1.0378670        4.4841440
 C       -0.7866630        3.9133320       -0.2826850
 C       -2.2059950        2.0088170       -1.4517030
 C       -3.3275640        1.4857570       -0.7169550
 C       -2.3232450        2.1890030       -2.8875160
 C       -4.5409040        1.2096700       -1.3982750
 C       -4.6360500        1.4487930       -2.7660670
 H       -5.3983600        0.8028990       -0.8689580
 C       -3.5614160        1.9114990       -3.5226460
 H       -3.6782970        2.0237200       -4.5967220
 F       -5.8523720        1.1715640       -3.4236740
 C        1.5146860        4.0785900       -1.6024090
 C        1.6735980        5.4819250       -2.2522160
 H        2.5231620        3.6859820       -1.4775910
 H        1.0137800        3.4184310       -2.3157360
 H        0.7608790        5.8461330       -2.7348380
 H        2.4450620        5.4126800       -3.0367760
 H        2.0054710        6.2534360       -1.5460360
 C        1.3780280        4.9288680        0.8304040
 C        2.9110530        5.1245130        0.9430460
 H        0.9382560        5.9038850        0.5762420
 H        0.9921150        4.6591540        1.8118180
 H        3.4278170        4.2256740        1.2961030
 H        3.1097680        5.9235270        1.6756400
 H        3.3781850        5.4328410        0.0002490
 C       -1.3337480        4.9609550       -1.3021990
 C       -2.8535380        5.2670670       -1.3599560
 H       -0.8273190        5.9074150       -1.0655890
 H       -1.0072220        4.6675880       -2.3006810
 H       -3.4602270        4.3967160       -1.6247500
 H       -3.0208630        6.0310880       -2.1371050
 H       -3.2491650        5.6750370       -0.4226470
 C       -1.5253790        4.0548560        1.0958500
 C       -1.6434710        5.4433710        1.7875950
 H       -2.5465080        3.7108960        0.9073070
 H       -1.0660840        3.3589990        1.8029740
 H       -1.8284750        6.2702400        1.0914370
 H       -0.7573990        5.7031540        2.3761050
 H       -2.4947630        5.4151980        2.4871340
 C        3.8298260        1.6467410       -0.7657540
 C        5.0212310        0.8024430       -1.2797300
 H        4.1563030        2.7011300       -0.7742520
 H        3.0148660        1.5585860       -1.4876230
 C        5.3925540        1.1661180       -2.7348430
 H        4.7678580       -0.2667810       -1.2299390
 H        5.9100420        0.9607100       -0.6461470
 H        5.6670820        2.2300270       -2.8292520
 H        6.2524850        0.5698280       -3.0775570
 H        4.5538110        0.9666700       -3.4180560
 N        0.7551730        2.5813160        3.2516270
 C       -0.2864190        1.7552880        3.9189480
 C        1.2858200        3.5989450        4.2054660
 H        0.0912980        1.2192180        4.8143910
 H       -0.6805790        1.0104900        3.2272340
 H       -1.0998280        2.4200380        4.2467700
 H        2.0965170        4.1755710        3.7469280
 H        1.6741600        3.1601830        5.1476200
 H        0.4714650        4.2888070        4.4738880
 F        4.6968230       -0.2215590        3.7053670
 C       -3.2928170        1.0998300        0.7648020
 C       -4.4727790        1.6267150        1.6303650
 H       -2.3482550        1.3978620        1.2197670
 H       -3.3045650       -0.0014310        0.8170760
 C       -4.4249200        1.0999120        3.0821660
 H       -5.4357870        1.3284050        1.1884090
 H       -4.4706640        2.7289760        1.6383370
 H       -3.5065770        1.4135080        3.5989870
 H       -5.2824010        1.4762170        3.6618240
 H       -4.4590270       -0.0006670        3.1076730
 N       -1.2427350        2.6637020       -3.7078780
 C       -0.1832530        1.6765750       -4.0296170
 C       -1.5980370        3.4877020       -4.8842900
 H        0.1275000        1.1278220       -3.1431250
 H        0.6943390        2.1970880       -4.4388460
 H       -0.5256840        0.9393490       -4.7847690
 H       -2.3718320        4.2201200       -4.6232200
 H       -1.9516650        2.8991090       -5.7559920
 H       -0.6995990        4.0351700       -5.2071430
