85
Mol_000340_2D_DFT last geometry from G09 out file
 Ru        0.2829830        0.1023840       -0.5874760
 C       -1.2515940       -0.6709990       -1.1657310
 Cl        0.2148530       -0.5341220        1.7379170
 Cl        1.3321600        0.2542940       -2.7767040
 H       -2.2079620       -0.2259540       -1.4429890
 H       -1.1633410       -1.7726090       -1.2923560
 C       -0.0291260        2.0101620       -0.3757330
 N        1.0264550        2.8350150        0.0458510
 N       -1.1153430        2.8156940       -0.6780940
 C        0.7254230        4.3058260       -0.2136780
 C        1.9741280        2.4750170        1.1190810
 C       -0.8165580        4.3064550       -0.5230690
 H        0.9183440        4.8426500        0.7226090
 H       -0.9872380        4.7587600       -1.5082730
 C        1.5496020        2.7955240        2.4360580
 C        3.2625930        1.8928610        0.9220520
 C        2.3686950        2.6009600        3.5513600
 C        3.6642400        2.0611010        3.3711880
 H        2.0197370        2.8444900        4.5536800
 C        4.0770300        1.7112080        2.0703040
 H        5.0692850        1.2868420        1.9422970
 C       -2.2754820        2.3875300       -1.4521500
 C       -2.2405590        2.6291930       -2.8463300
 C       -3.4264800        1.7827310       -0.8541640
 C       -3.3386730        2.3346550       -3.6666800
 C       -4.5045190        1.7782310       -3.0906180
 H       -3.3026820        2.5188080       -4.7392980
 C       -4.5237520        1.5017770       -1.7040120
 H       -5.4181870        1.0515900       -1.2850850
 H       -1.3323860        3.0297070       -3.2911780
 C       -3.5060550        1.4424820        0.6372640
 C       -4.3597980        0.2099380        1.0193180
 H       -3.9157060        2.3126710        1.1770130
 H       -2.4938020        1.2903760        1.0265030
 H       -4.2600210        0.0244930        2.0992530
 H       -4.0245510       -0.6976110        0.4972510
 H       -5.4301690        0.3509560        0.8097870
 C        1.6633010        4.9749000       -1.3225330
 C        3.1218550        5.0539280       -0.7808700
 C        1.6426430        4.1998090       -2.6679930
 C        1.2303370        6.4455150       -1.6106820
 H        3.1628750        5.5704040        0.1909510
 H        3.7475780        5.6232070       -1.4841000
 H        3.5758590        4.0703250       -0.6614650
 H        0.6759330        4.2989510       -3.1829630
 H        1.8499890        3.1338470       -2.5433970
 H        2.4045840        4.6155290       -3.3441610
 H        0.2135910        6.5226650       -2.0162220
 H        1.9085460        6.8664950       -2.3674480
 H        1.2989070        7.0828320       -0.7191820
 C       -5.6693020        1.4922090       -3.9856910
 O       -6.7339190        0.9027820       -3.2967750
 O       -5.7118500        1.7429010       -5.2121020
 C       -7.9349410        0.5772410       -4.0972730
 H       -8.6334480        0.1314410       -3.3810020
 H       -8.3564790        1.4880990       -4.5441480
 H       -7.6818490       -0.1341970       -4.8952000
 C       -1.7630230        5.1125960        0.4864300
 C       -1.7903810        4.5132460        1.9198800
 C       -1.2834920        6.5932710        0.6104770
 C       -3.2135000        5.1923680       -0.0853250
 H       -2.6281470        4.9461690        2.4862600
 H       -0.8755820        4.7593110        2.4751410
 H       -1.9136260        3.4264570        1.9184670
 H       -1.3423190        7.1294450       -0.3455360
 H       -0.2606120        6.6820260        0.9956940
 H       -1.9416200        7.1156960        1.3203490
 H       -3.8021930        5.9044540        0.5119710
 H       -3.7389950        4.2363250       -0.0617480
 H       -3.2172380        5.5542120       -1.1246620
 H        0.5458700        3.1774900        2.5836800
 C        3.8487080        1.4615590       -0.4216470
 C        4.3122850       -0.0190180       -0.4729160
 H        4.7268260        2.0940200       -0.6405190
 H        3.1318520        1.6297970       -1.2286150
 H        4.6607080       -0.2590580       -1.4878920
 H        3.4923620       -0.7078500       -0.2297940
 H        5.1381960       -0.2188390        0.2247190
 C        4.5319200        1.8758440        4.5745720
 O        5.7602360        1.2866000        4.2572170
 O        4.2204460        2.2014900        5.7437960
 C        6.6844220        1.0458790        5.3862160
 H        7.5652380        0.5814520        4.9297260
 H        6.9481660        1.9933140        5.8763200
 H        6.2228350        0.3736730        6.1225220
