73
Mol_000339_2D_DFT last geometry from G09 out file
 Ru        0.2084870       -0.1570450        0.0792450
 C       -1.1720670       -0.8696570       -0.8622560
 Cl       -0.6548720       -0.3354390        2.3356230
 Cl        1.9441240       -0.4902970       -1.5724350
 H       -1.9242990       -0.3590540       -1.4680250
 H       -1.2247830       -1.9796280       -0.8338990
 C       -0.0019150        1.7556380       -0.1705530
 N        1.0574840        2.6154960        0.1340250
 N       -1.0751850        2.5246380       -0.5990840
 C        0.7642010        4.0414690       -0.2531980
 C        2.0952480        2.3323850        1.1240370
 C       -0.7879710        4.0091870       -0.5314170
 H        0.9721780        4.6821470        0.6114560
 H       -0.9762710        4.4256850       -1.5272460
 C        1.6893260        2.2374080        2.4796360
 C        3.4871240        2.2341290        0.8201610
 C        2.5950180        2.0278910        3.5243250
 C        3.9923310        1.9167450        3.2519290
 H        2.2060800        1.9336340        4.5346830
 C        4.3910590        2.0241240        1.8854610
 H        5.4427480        1.9341340        1.6252460
 C       -2.2393280        2.1063680       -1.3605040
 C       -2.1321160        2.0947790       -2.7715370
 C       -3.4867830        1.7762740       -0.7579520
 C       -3.2128220        1.7654920       -3.5999230
 C       -4.4796950        1.4287410       -3.0278980
 H       -3.0632720        1.7658880       -4.6765430
 C       -4.5693210        1.4402210       -1.6017640
 H       -5.5080060        1.1784380       -1.1198810
 H       -1.1720410        2.3336760       -3.2305270
 C       -3.7008920        1.7549820        0.7456780
 H       -2.8273180        1.3671630        1.2791510
 H       -4.5623450        1.1250660        1.0065090
 H       -3.9025950        2.7661810        1.1274570
 C        1.5369640        4.5411470       -1.4569640
 C        1.7631270        3.9377600       -2.6832470
 S        2.2223320        6.2226860       -1.4417450
 C        2.4733180        4.7654080       -3.6236530
 H        1.4710930        2.9124200       -2.8990760
 C        2.7934620        6.0164570       -3.1290900
 H        2.7429490        4.4364140       -4.6257730
 H        3.3197540        6.8328810       -3.6118710
 N       -5.5787390        1.0952740       -3.8280570
 C       -5.4490470        1.0713290       -5.2917550
 C       -6.8658830        0.7413700       -3.2139790
 H       -5.1717810        2.0604520       -5.6963140
 H       -6.4079210        0.7863850       -5.7396450
 H       -4.6919930        0.3406880       -5.6269560
 H       -7.2690880        1.5665430       -2.6015790
 H       -6.7843460       -0.1526070       -2.5707320
 H       -7.5982580        0.5211980       -3.9991090
 C       -1.6122380        4.7774490        0.4788150
 C       -1.7055250        4.6445350        1.8555530
 S       -2.6211380        6.1790350       -0.0854110
 C       -2.5564420        5.6182600        2.4873860
 H       -1.1970900        3.8610290        2.4115060
 C       -3.1234270        6.5151500        1.5995700
 H       -2.7389940        5.6482990        3.5601180
 H       -3.7933810        7.3450690        1.7969220
 H        0.6300250        2.2885730        2.7183700
 C        4.0645390        2.3440990       -0.5795190
 H        3.4082250        1.8877530       -1.3235790
 H        5.0376440        1.8373290       -0.6317250
 H        4.2225900        3.3948430       -0.8631600
 N        4.9248860        1.7071100        4.2745960
 C        4.4736610        1.5468860        5.6641750
 C        6.3506220        1.5436070        3.9598080
 H        3.9356570        2.4406400        6.0240970
 H        5.3423140        1.3982280        6.3160740
 H        3.8068440        0.6747940        5.7858550
 H        6.5343480        0.6687430        3.3108050
 H        6.9162340        1.3970970        4.8872840
 H        6.7622970        2.4347090        3.4554220
