70
Mol_000338_2D_DFT last geometry from G09 out file
 Ru        0.1282190       -0.3099340       -0.5215270
 C        1.9390670       -0.4454170       -0.5920310
 Cl       -0.3179780       -0.4951330       -2.8861350
 Cl       -0.4149080       -0.8646490        1.7683880
 H        2.6703660        0.3667200       -0.6697070
 H        2.3455380       -1.4784740       -0.6159390
 C       -0.0773320        1.6089050       -0.3642660
 N        0.8293740        2.6063150       -0.0463050
 N       -1.2885020        2.2258500       -0.6554410
 C        0.2533920        3.9736840       -0.2205730
 C        2.0971120        2.4983840        0.6294070
 C       -1.2455670        3.7232290       -0.5237320
 H        0.7490980        4.4970590       -1.0511400
 H        0.3882380        4.5448710        0.7043510
 H       -1.5264600        4.1663010       -1.4896890
 C        2.2032340        1.8738650        1.8902980
 C        3.2469540        3.0989980        0.0640050
 C        3.4463710        1.8294470        2.5547230
 C        4.6142640        2.4207740        2.0099560
 H        3.4831850        1.3254770        3.5177170
 C        4.4757790        3.0598310        0.7472240
 H        5.3389120        3.5289770        0.2753050
 C       -2.5231650        1.5629710       -1.0100040
 C       -3.1041730        1.7713550       -2.2777620
 C       -3.1915350        0.7389950       -0.0768230
 C       -4.3260770        1.1558740       -2.6103760
 C       -5.0061770        0.3045640       -1.7017080
 H       -4.7285760        1.3296250       -3.6055780
 C       -4.4022200        0.1147740       -0.4304540
 H       -4.8763770       -0.5269570        0.3118660
 H       -2.5840210        2.3741030       -3.0225780
 H       -2.7652010        0.5820800        0.9117330
 C       -2.2067840        4.2546280        0.5476550
 C       -3.4282890        4.8701850        0.1901230
 N       -1.8267190        4.0916770        1.8496580
 C       -4.2910770        5.3258470        1.2096200
 H       -3.7037460        4.9815370       -0.8587100
 C       -3.9081070        5.1520430        2.5554540
 H       -5.2397090        5.8020230        0.9580640
 C       -2.6673430        4.5311940        2.8234960
 H       -4.5449110        5.4864050        3.3746800
 H       -2.3282330        4.3777220        3.8498570
 C       -6.3406370       -0.4104500       -2.0507930
 C       -7.4477440        0.0250210       -1.0370550
 C       -6.8427790       -0.0733640       -3.4830520
 C       -6.1342090       -1.9577600       -1.9634410
 H       -7.6236350        1.1103180       -1.0891060
 H       -7.1778100       -0.2219690       -0.0011610
 H       -8.3955110       -0.4861540       -1.2659920
 H       -6.1282290       -0.3955030       -4.2547300
 H       -7.0298110        1.0035120       -3.6106460
 H       -7.7911360       -0.5967790       -3.6742670
 H       -5.3558850       -2.2892260       -2.6666090
 H       -7.0696880       -2.4814660       -2.2139290
 H       -5.8314600       -2.2760930       -0.9565220
 H        1.3273380        1.4098510        2.3376570
 H        3.1866160        3.5787120       -0.9138570
 C        5.9935580        2.3927910        2.7250880
 C        6.4707830        3.8566690        2.9942580
 C        5.9442300        1.6472030        4.0885490
 C        7.0357070        1.6647810        1.8152510
 H        5.7584540        4.3881000        3.6431330
 H        6.5744970        4.4349670        2.0655100
 H        7.4509700        3.8517390        3.4954990
 H        5.6480080        0.5943510        3.9716190
 H        5.2485630        2.1256540        4.7936150
 H        6.9420710        1.6591370        4.5511590
 H        6.7209430        0.6307580        1.6094080
 H        8.0174140        1.6308460        2.3121850
 H        7.1678680        2.1737310        0.8503260
