65
Mol_000342_2D_DFT last geometry from G09 out file
 Ru        0.5263500        0.1113230       -0.5085680
 C       -1.0944100       -0.7289740       -0.4074910
 Cl        1.1324780       -0.6629130        1.7387730
 Cl        0.7565870        0.1974500       -2.9319970
 H       -2.0207520       -0.3473860        0.0289470
 H       -1.1142940       -1.7972680       -0.7082700
 C        0.0704740        1.9602540       -0.2120650
 N        1.0336610        2.8682450        0.2797080
 N       -1.0348410        2.7273120       -0.5963910
 C        0.7356050        4.2982180       -0.1152000
 C        1.9089390        2.5957280        1.4006160
 C       -0.7788660        4.2383010       -0.5320220
 H        0.8493160        4.9249200        0.7763790
 H       -0.8836770        4.6038750       -1.5627300
 C        1.5377640        3.1023350        2.6692520
 C        3.1602440        1.9187910        1.3307370
 C        2.3586330        2.9625600        3.8019130
 C        3.6041420        2.3079090        3.6976730
 H        2.0172420        3.3477110        4.7635550
 C        4.0006400        1.7867510        2.4583950
 H        4.9429560        1.2548890        2.3460570
 C       -2.1070980        2.2233670       -1.4345350
 C       -1.9236010        2.2455750       -2.8367610
 C       -3.3763500        1.7768390       -0.9582990
 C       -2.9281730        1.8236520       -3.7282020
 C       -4.1718670        1.3820250       -3.2339040
 H       -2.7275990        1.8259380       -4.7997450
 C       -4.3957750        1.3688870       -1.8474700
 H       -5.3503790        1.0465510       -1.4365900
 H       -0.9599340        2.5563750       -3.2262360
 N       -3.7443890        1.7184530        0.4824920
 O       -4.9612830        2.0171560        0.7922150
 O       -2.8576610        1.3694950        1.3435950
 C        1.7599260        4.8720530       -1.2035070
 C        1.8262310        4.0032310       -2.4880180
 C        1.3677530        6.3233460       -1.6175890
 C        3.1838450        4.9640120       -0.5746770
 H        2.0621460        2.9561350       -2.2795820
 H        2.6112990        4.3941100       -3.1522450
 H        0.8859220        4.0370690       -3.0564560
 H        2.0985490        6.6869580       -2.3545300
 H        1.3848620        7.0197820       -0.7682320
 H        0.3799780        6.3810370       -2.0923990
 H        3.6405350        3.9836620       -0.4193150
 H        3.1737980        5.4982360        0.3883890
 H        3.8489590        5.5192340       -1.2518880
 H       -4.9553640        1.0473520       -3.9138060
 C       -1.7974810        5.1100470        0.3432720
 C       -1.9207720        4.6252720        1.8154830
 C       -1.3290940        6.6001210        0.3775670
 C       -3.2065090        5.1437660       -0.3305550
 H       -2.0306670        3.5400550        1.8998010
 H       -2.8021750        5.0869640        2.2840200
 H       -1.0516200        4.9350030        2.4124290
 H       -2.0314690        7.1694040        1.0035720
 H       -1.3316340        7.0597260       -0.6195970
 H       -0.3324020        6.7301730        0.8155610
 H       -3.7781720        4.2245520       -0.2012640
 H       -3.1346530        5.3559270       -1.4084010
 H       -3.8050890        5.9480520        0.1212810
 H        0.5722470        3.5861990        2.7714920
 N        3.6562450        1.3044590        0.0941060
 O        4.9238820        1.2795950       -0.1158200
 O        2.8065260        0.7928170       -0.7442520
 H        4.2450200        2.1859070        4.5706270
