85
M00000195_2D_DFT last geometry from G09 out file
 Ru        0.3417290        0.2743240       -0.5123340
 C       -1.1876300       -0.5900950       -0.9623980
 Cl        0.4882580       -0.3206580        1.8235540
 Cl        1.1946660        0.3447460       -2.8068620
 H       -2.1686660       -0.1958790       -1.2283880
 H       -1.0631610       -1.6940270       -1.0255590
 C       -0.0472400        2.1824480       -0.3257120
 N        0.9828130        3.0518500        0.0674670
 N       -1.1660270        2.9302060       -0.6764730
 C        0.6418550        4.5104780       -0.2626910
 C        2.0509090        2.7426520        1.0614990
 C       -0.8645840        4.4366600       -0.7502550
 H        0.6947410        5.0763940        0.6764050
 H       -0.8867710        4.6962550       -1.8148590
 C        1.7746180        3.0626690        2.4329260
 C        3.3447840        2.2115920        0.7170220
 C        2.8075990        2.9951870        3.3948780
 C        4.1002310        2.5807560        3.0452340
 H        2.5758030        3.2476560        4.4312850
 C        4.3383330        2.1655580        1.7288880
 H        5.3228980        1.7782470        1.4721700
 C       -2.3898370        2.3528830       -1.2511870
 C       -2.5490740        2.3625040       -2.6767420
 C       -3.4229950        1.8018610       -0.4125080
 C       -3.7476270        1.8643230       -3.2403120
 C       -4.7759460        1.3519790       -2.4329130
 H       -3.8603030        1.8707680       -4.3254050
 C       -4.5987600        1.3164230       -1.0416060
 H       -5.3913480        0.8994930       -0.4219500
 C       -1.4890090        2.8646030       -3.6423420
 H       -0.4785100        2.6217670       -3.3089240
 H       -1.5610310        3.9535640       -3.7978570
 H       -1.6255900        2.3946690       -4.6250600
 C       -3.3729110        1.6802770        1.1258070
 C       -3.4010460        0.2043890        1.6225150
 C       -4.5449080        2.4519420        1.8074750
 H       -2.4266040        2.1049000        1.4755680
 H       -4.3038320       -0.3229840        1.2805660
 H       -3.4019680        0.1891390        2.7230470
 H       -2.5191690       -0.3533290        1.2934620
 H       -4.3822330        2.4897780        2.8956680
 H       -5.5059100        1.9446100        1.6392830
 H       -4.6453380        3.4809800        1.4425960
 C        1.6953230        5.2011770       -1.2696670
 C        2.9947230        5.5353630       -0.4718470
 C        2.0032210        4.3134560       -2.5065910
 C        1.2175190        6.5699520       -1.8479730
 H        2.7724160        6.2160910        0.3653040
 H        3.7128120        6.0487150       -1.1288470
 H        3.4886350        4.6561380       -0.0588120
 H        1.1602330        4.3045780       -3.2094380
 H        2.2275200        3.2807170       -2.2484130
 H        2.8668660        4.7253150       -3.0490800
 H        1.9927410        6.9268340       -2.5425400
 H        1.0954370        7.3405060       -1.0787840
 H        0.2881680        6.4933480       -2.4247510
 H       -5.6947150        0.9714410       -2.8820710
 C       -1.9346810        5.4317230       -0.0711910
 C       -2.1818920        5.1891570        1.4404500
 C       -1.4757920        6.9196680       -0.1802860
 C       -3.2895190        5.3688950       -0.8475400
 H       -2.3776300        4.1455840        1.6780820
 H       -3.0548470        5.7755670        1.7632910
 H       -1.3306040        5.5254630        2.0432730
 H       -1.3983390        7.2657010       -1.2172200
 H       -0.5229240        7.1064110        0.3276080
 H       -2.2324620        7.5454620        0.3158800
 H       -3.1396150        5.5099210       -1.9283680
 H       -3.9422280        6.1841180       -0.5005850
 H       -3.8292630        4.4317430       -0.7038610
 C        0.3986750        3.4178160        2.9630960
 H       -0.3952740        3.1597730        2.2663270
 H        0.3182470        4.4876370        3.2093050
 H        0.2139120        2.8586980        3.8911370
 C        3.7504570        1.5911890       -0.6332700
 C        4.0641580        0.0720560       -0.4618980
 C        4.9659590        2.2849380       -1.3123060
 H        2.9092750        1.6597220       -1.3263190
 H        4.1773460       -0.3944420       -1.4506170
 H        3.2632260       -0.4544590        0.0732500
 H        4.9958040       -0.0860460        0.1010360
 H        5.8813680        2.1859400       -0.7105430
 H        4.7939760        3.3528680       -1.4888280
 H        5.1587410        1.8099260       -2.2864130
 H        4.8947140        2.5406770        3.7920370
