79
M00000391_2D_DFT last geometry from G09 out file
 Ru        0.1503420       -0.0192550       -0.3095260
 C        1.4225800        0.0727300       -1.6085610
 Cl       -1.6501760       -1.0883720       -1.4872690
 Cl        1.1862010       -0.5084240        1.7979190
 H        1.7128570        0.9873890       -2.1317980
 H        1.9069980       -0.8761170       -1.9098810
 C       -0.1273060        1.9208900       -0.1866930
 N        0.8240850        2.8975400        0.1391170
 N       -1.3500800        2.5832490       -0.3492910
 C        0.2336850        4.2710510        0.1863600
 C        2.1814450        2.6943500        0.6217230
 C       -1.2951880        4.0764110       -0.0167150
 H        0.6584030        4.8916490       -0.6086300
 H        0.4569640        4.7470570        1.1447210
 C       -2.1320340        4.5098710        1.2281180
 C       -1.8554980        5.0406630       -1.1072430
 C       -2.1894320        6.0588450        1.1384040
 H       -1.7045950        4.1486620        2.1681660
 H       -3.1382780        4.0883940        1.1420770
 C       -1.9904070        6.4045140       -0.3768020
 H       -3.1471530        6.4373780        1.5235560
 H       -1.3998950        6.5224940        1.7483790
 H       -1.0860190        7.0157500       -0.5178530
 H       -2.8298440        6.9858840       -0.7839880
 H       -2.8480950        4.6973820       -1.4263680
 H       -1.2199970        5.0995660       -1.9975340
 C        3.3117730        2.6040930       -0.2831260
 C        2.4462080        2.6031690        2.0290200
 C        4.5732320        2.2330170        0.2570620
 C        4.7924800        2.0424650        1.6300960
 H        5.4316150        2.1155130       -0.3981850
 C        3.7257300        2.2795500        2.5199510
 H        3.8711500        2.1888750        3.5905130
 C       -2.5559160        2.0323780       -0.9437680
 C       -2.7230370        2.0104690       -2.3642350
 C       -3.6782320        1.6184050       -0.1195080
 C       -3.9482760        1.6450850       -2.9629230
 C       -5.0563540        1.3054780       -2.1653820
 H       -4.0215910        1.6314440       -4.0461440
 C       -4.8990000        1.2918790       -0.7694690
 H       -5.7573410        0.9756750       -0.1848470
 N        3.2301140        2.8379540       -1.6743620
 C        2.6674310        4.0978810       -2.2088690
 C        4.1993670        2.1894290       -2.5806760
 H        1.6877700        3.9553340       -2.6827010
 H        3.3556520        4.5059900       -2.9655460
 H        2.5867610        4.8536600       -1.4186620
 H        5.1582870        2.7370840       -2.6584300
 H        3.7599810        2.1375040       -3.5874490
 H        4.4080700        1.1632880       -2.2560060
 C        1.4277270        2.9186200        3.1074320
 F        1.7531990        2.3654910        4.3613830
 F        0.0988910        2.5387650        2.8610160
 F        1.3676200        4.3449230        3.3426850
 C        6.1758150        1.6382450        2.0937580
 C        6.4136320        1.3565220        3.5734430
 O        7.1148530        1.5275310        1.2583230
 H        5.7446340        0.5619870        3.9386090
 H        7.4539230        1.0440520        3.7154910
 H        6.2248990        2.2526700        4.1854940
 C       -1.6814310        2.3776460       -3.4027070
 F       -0.3895430        2.7010400       -2.9546050
 F       -2.0982370        3.5201360       -4.1703190
 F       -1.5000930        1.3511950       -4.3630400
 N       -3.6440380        1.5800640        1.2936360
 C       -4.9172900        1.6639800        2.0363090
 C       -2.6211270        0.8021810        2.0247780
 H       -4.6943900        1.9753750        3.0669860
 H       -5.4613710        0.7007590        2.0886190
 H       -5.5818460        2.4158070        1.5917800
 H       -1.6522330        0.8583980        1.5384020
 H       -2.9105180       -0.2625650        2.1034250
 H       -2.5021800        1.2074110        3.0388190
 C       -6.3990240        0.9198050       -2.7469080
 C       -6.5419110        0.7637850       -4.2578490
 O       -7.3859770        0.7251460       -1.9852560
 H       -5.8414710        0.0083510       -4.6462600
 H       -7.5672720        0.4555180       -4.4896220
 H       -6.3284770        1.7101920       -4.7793650
