75
M00000392_2D_DFT last geometry from G09 out file
 Ru        0.4018160       -0.1234810       -0.0879470
 C       -0.4743880       -0.6670380       -1.5861190
 Cl       -1.1563140       -0.6029010        1.6977170
 Cl        2.6552330       -0.1938300       -0.9568240
 H       -0.9031780       -0.0430050       -2.3778330
 H       -0.5285560       -1.7644760       -1.7412250
 C        0.1443480        1.7891170       -0.2440640
 N        1.0975910        2.7022800        0.2163500
 N       -0.8621620        2.5256100       -0.8526630
 C        0.8581560        4.0734890       -0.3097300
 C        2.0440680        2.4652570        1.2695230
 C       -0.6455860        4.0118330       -0.7264690
 H        1.0012950        4.8086910        0.4890530
 H       -0.7800060        4.4807560       -1.7064010
 C        1.6971840        1.6514950        2.3751520
 C        3.3186920        3.0816000        1.2534340
 C        2.6246680        1.4172350        3.4047790
 C        3.9133320        2.0119900        3.3975440
 H        2.3160570        0.8004510        4.2491320
 C        4.2266110        2.8609340        2.3020900
 H        5.2133380        3.3207990        2.2417700
 C       -2.1025060        2.0708820       -1.4334310
 C       -2.3748700        2.3480800       -2.7943700
 C       -3.0832910        1.4204510       -0.6517880
 C       -3.6035510        1.9701420       -3.3650080
 C       -4.5978650        1.3012360       -2.6000140
 H       -3.7738840        2.1613860       -4.4246540
 C       -4.3044120        1.0361860       -1.2352480
 H       -5.0509660        0.5515240       -0.6061420
 H       -1.6168300        2.8291650       -3.4141970
 H       -2.8863770        1.2101320        0.3959710
 C        1.7438170        4.4743650       -1.5016740
 C        2.5134940        3.5623970       -2.2587370
 N        1.6859170        5.8110230       -1.7908320
 C        3.2565970        4.0552720       -3.3530270
 H        2.5448120        2.5074620       -1.9965770
 C        3.2101750        5.4319780       -3.6579420
 H        3.8622020        3.3723970       -3.9505250
 C        2.4096570        6.2678410       -2.8489410
 H        3.7748820        5.8489060       -4.4921460
 H        2.3417530        7.3401680       -3.0440280
 C       -5.8996680        0.8923210       -3.2087640
 C       -6.5525610        1.7145240       -4.1672160
 C       -6.5240310       -0.3327550       -2.8477650
 C       -7.7801800        1.3282730       -4.7417010
 H       -6.1146150        2.6743990       -4.4436940
 C       -8.3869860        0.1079760       -4.3726410
 H       -8.2658610        1.9820720       -5.4685440
 C       -7.7512490       -0.7202840       -3.4221340
 H       -9.3373650       -0.1919620       -4.8173590
 H       -8.2049790       -1.6704820       -3.1346780
 H       -6.0347180       -0.9995690       -2.1370600
 C       -1.6092640        4.6709980        0.2645430
 C       -2.5343030        5.6494530       -0.1644540
 N       -1.5146800        4.2745870        1.5687150
 C       -3.3992860        6.2356080        0.7842950
 H       -2.5775850        5.9465530       -1.2124090
 C       -3.3118370        5.8270670        2.1309210
 H       -4.1234800        6.9917710        0.4782540
 C       -2.3534100        4.8462880        2.4727400
 H       -3.9615150        6.2520690        2.8962300
 H       -2.2470750        4.5024130        3.5033990
 H        0.6928910        1.2427680        2.4605860
 H        3.6232620        3.7024000        0.4143880
 C        4.8926120        1.7633220        4.4966960
 C        5.7458920        2.7968860        4.9712240
 C        5.0020700        0.4815680        5.1022410
 C        6.6703330        2.5594910        6.0082900
 H        5.6666170        3.7989540        4.5478740
 C        6.7657620        1.2807620        6.5995120
 H        7.3078070        3.3730270        6.3600550
 C        5.9255230        0.2431620        6.1397770
 H        7.4814820        1.0962100        7.4025740
 H        5.9957470       -0.7529910        6.5807180
 H        4.3839940       -0.3401780        4.7390310
