62
Mol_000035_2D_DFT last geometry from G09 out file
Ru        0.1014800        0.2271530        0.3914360
C       -1.1850290       -0.6167980       -0.5724810
Cl       -0.8690360        0.1587310        2.6029300
Cl        2.0058040       -0.1283690       -1.0385540
H       -1.9129500       -0.1993190       -1.2725250
H       -1.2090650       -1.7194870       -0.4377620
C       -0.0871160        2.1043390       -0.0963650
N        0.8731660        3.0250870        0.2954390
N       -0.9785410        2.7721490       -0.9282880
C        0.5594450        4.4014100       -0.1705990
C        1.8146460        2.8708830        1.3867830
C       -0.4901180        4.1859370       -1.2965380
H        1.4723020        4.8812710       -0.5296090
H        0.1421640        4.9838450        0.6656110
C        0.1610930        4.1692220       -2.7164490
C       -1.6219350        5.2471710       -1.2568730
C        0.6545650        5.5674350       -3.1687970
H        0.9820410        3.4406230       -2.7317000
H       -0.5928620        3.8300090       -3.4409810
C       -0.4718380        6.6235520       -3.0923430
H        1.5054640        5.8946630       -2.5490350
H        1.0356950        5.4936540       -4.2010520
C       -1.1160740        6.6478850       -1.6874620
H       -1.2459200        6.3895760       -3.8442850
H       -0.0750580        7.6202760       -3.3459640
H       -1.9655230        7.3503530       -1.6710750
H       -0.3864630        7.0300190       -0.9533210
H       -2.0528310        5.2896250       -0.2496980
H       -2.4249150        4.9448990       -1.9467960
C        1.2599740        2.8967280        2.6903470
C        3.2318070        2.7655610        1.2310230
C        2.0714120        2.8009540        3.8356780
C        3.4671800        2.6779440        3.6901970
H        1.6124370        2.8111330        4.8249650
C        4.0293750        2.6559390        2.4025190
H        5.1043770        2.5398310        2.2748050
C       -2.2845570        2.3126410       -1.3194740
C       -2.4896350        1.9193520       -2.6647860
C       -3.3862480        2.2568640       -0.4066900
C       -3.7525160        1.4998930       -3.1251800
C       -4.8378250        1.4402660       -2.2272390
H       -3.8780440        1.2025970       -4.1673740
C       -4.6449100        1.8021940       -0.8816810
H       -5.4730800        1.7422290       -0.1795910
C       -3.2793330        2.6906240        1.0315750
O       -4.2467710        2.0604250        1.8099090
O       -2.4736160        3.5244210        1.5030890
C       -4.2201830        2.3444190        3.2636540
H       -4.3485130        3.4198230        3.4489670
H       -5.0600170        1.7706200        3.6695730
H       -3.2686160        1.9996270        3.6860230
H       -5.8194810        1.1065180       -2.5654510
H        0.1806460        2.9748860        2.7918980
C        4.0207830        2.7132000       -0.0486290
O        3.4308800        3.3850110       -1.1181000
O        5.1463720        2.1739460       -0.1407560
C        4.1688990        3.2910780       -2.4024650
H        3.5945340        3.9072180       -3.1010370
H        5.1910750        3.6749860       -2.2867700
H        4.2036350        2.2450310       -2.7330480
H        4.1117610        2.5935040        4.5659960
H       -1.6365940        1.9043420       -3.3388990
