61
Mol_000391_2D_DFT last geometry from G09 out file
 Ru        0.3173580       -0.0282010       -0.2091750
 C       -0.9910420       -0.6847760       -1.2880140
 Cl       -0.4728180       -0.6826110        1.9496090
 Cl        2.1824050       -0.2050510       -1.7056430
 H       -1.7241670       -0.1539870       -1.8991180
 H       -1.0045050       -1.7918000       -1.3609590
 C        0.0362480        1.9017010       -0.2216870
 N        0.9334080        2.7805600        0.4021710
 N       -0.8892390        2.7036970       -0.8908470
 C        0.7506270        4.2246650        0.0044740
 C        2.0958420        2.3770110        1.1653490
 C        0.6211120        5.2379300        1.1803860
 C       -0.4812620        4.1645710       -0.9510720
 H        1.6343540        4.5179540       -0.5762330
 C       -0.7856580        5.3997020        1.7176050
 H        1.3278170        4.9830430        1.9787130
 H        0.9661560        6.2110590        0.7836120
 C       -1.8395840        5.3776480        0.8692780
 H       -0.9202650        5.5424090        2.7903820
 C       -1.6111310        5.1783990       -0.6142780
 H       -2.8608310        5.5138920        1.2302770
 H       -2.5380160        4.8928640       -1.1288090
 H       -1.3079840        6.1372140       -1.0739700
 H       -0.1466790        4.3724780       -1.9729720
 C        2.0090840        2.0474390        2.5589680
 C        3.3743700        2.3459270        0.5175510
 C        3.1467840        1.5877470        3.2535960
 C        4.3707640        1.4986040        2.5791800
 H        3.0902790        1.3128360        4.3027950
 C        4.4997600        1.8942450        1.2417170
 H        5.4725240        1.8331960        0.7593920
 C       -2.1005090        2.2819490       -1.5390560
 C       -2.2301190        2.3013180       -2.9684310
 C       -3.2306850        1.9143010       -0.7361760
 C       -3.4561970        1.9761650       -3.5821720
 C       -4.5458780        1.6164040       -2.7774980
 H       -3.5660390        1.9806350       -4.6625710
 C       -4.4446830        1.5820980       -1.3787040
 H       -5.3166890        1.3071820       -0.7898470
 C        0.8159370        2.3166900        3.4668310
 F       -0.4359620        2.4267400        2.8655050
 F        1.0231450        3.5761600        4.1432040
 F        0.6975910        1.3685180        4.4986220
 C        3.5990000        2.7994400       -0.9135750
 H        3.8855250        3.8645850       -0.9347050
 H        2.7223530        2.6543530       -1.5481980
 H        4.4197420        2.2327610       -1.3682460
 N        5.5714240        0.9999420        3.3170530
 O        5.4169790        0.6377970        4.5393900
 O        6.6897540        0.9669800        2.6853900
 C       -1.1111820        2.6795280       -3.9237150
 F        0.1825930        2.3433610       -3.4906160
 F       -1.0865690        4.0923920       -4.1772420
 F       -1.2672760        2.0779160       -5.1878090
 C       -3.1812110        1.8663990        0.7759560
 H       -2.5683080        2.6675900        1.1969220
 H       -2.7458240        0.9209360        1.1267360
 H       -4.1928310        1.9425800        1.1947130
 N       -5.8445780        1.2736370       -3.4300090
 O       -6.8260020        0.9408020       -2.6703100
 O       -5.9062120        1.3321740       -4.7124200
