85
Mol_000390_2D_DFT last geometry from G09 out file
 Ru        0.5078870       -0.8365920       -0.2087070
 C       -0.4290400       -1.5266080       -1.6033840
 Cl       -0.9492910       -1.1306790        1.6956750
 Cl        2.6552460       -0.9771070       -1.3572950
 H       -0.8564250       -1.0048360       -2.4645990
 H       -0.4830350       -2.6364990       -1.6249320
 C        0.1748130        1.0749420       -0.3340690
 N        1.0176180        1.9721170        0.3119660
 N       -0.8221240        1.8099610       -0.9544930
 C        0.7281280        3.4035760       -0.0632750
 C        1.8456680        1.6165780        1.4620850
 C       -0.7106160        3.2995270       -0.6848050
 H        0.7076990        3.9900700        0.8625750
 H       -0.7282330        3.8066680       -1.6564360
 C        1.3376970        1.8094350        2.7696520
 C        3.1478560        1.0912450        1.3112950
 C        2.1243290        1.5009780        3.8948760
 C        3.4341220        0.9768600        3.7584150
 H        1.7022070        1.6453490        4.8915160
 C        3.9206410        0.7710800        2.4449400
 H        4.9158880        0.3473830        2.2971060
 C       -1.8430250        1.2886050       -1.8363770
 C       -1.8324120        1.6225180       -3.2095620
 C       -2.8783060        0.4629380       -1.3381580
 C       -2.8505810        1.1527500       -4.0642210
 C       -3.9004250        0.3326500       -3.5803880
 H       -2.8184190        1.4177350       -5.1230750
 C       -3.8839270       -0.0080770       -2.2035660
 H       -4.6660730       -0.6536750       -1.7990400
 H       -1.0235400        2.2287090       -3.6167620
 H       -2.8797340        0.1761940       -0.2890700
 C        1.8344390        4.0685210       -1.0048200
 C        2.0886590        3.2371980       -2.2931230
 C        1.3903650        5.5095040       -1.4061390
 C        3.1753890        4.2224140       -0.2253340
 H        1.2049670        3.2031350       -2.9465690
 H        2.3814030        2.2058690       -2.0642580
 H        2.9023230        3.6959050       -2.8749320
 H        2.1768060        5.9673800       -2.0239990
 H        1.2472150        6.1525520       -0.5258880
 H        0.4656260        5.5289760       -1.9979090
 H        3.8781340        4.8293430       -0.8157610
 H        3.6568890        3.2609620       -0.0308060
 H        3.0290250        4.7310390        0.7402680
 C       -5.0201100       -0.1418690       -4.4975290
 C       -6.2590620        0.8018170       -4.4947090
 H       -4.6454240       -0.2275740       -5.5304780
 H       -5.3470790       -1.1503110       -4.1954250
 C       -7.3926700        0.3179630       -5.4303480
 H       -6.6452620        0.8886440       -3.4649810
 H       -5.9425370        1.8154060       -4.7943940
 C       -8.6249870        1.2496920       -5.4275220
 H       -7.7034980       -0.6984960       -5.1306850
 H       -7.0036240        0.2311670       -6.4602980
 H       -9.4086580        0.8733100       -6.1038050
 H       -8.3579530        2.2663610       -5.7577370
 H       -9.0629520        1.3296270       -4.4197460
 C       -1.9106160        3.9335530        0.1632280
 C       -2.1795240        3.1733680        1.4905100
 C       -1.5830720        5.4223390        0.4999720
 C       -3.2213260        3.9641660       -0.6847250
 H       -1.3723550        3.3269070        2.2183240
 H       -2.2989340        2.0950160        1.3363010
 H       -3.1038950        3.5516600        1.9519540
 H       -2.4251820        5.8532220        1.0613350
 H       -1.4475880        6.0287100       -0.4065150
 H       -0.6883690        5.5370580        1.1255200
 H       -3.6493310        2.9702900       -0.8387910
 H       -3.0551130        4.4202920       -1.6727080
 H       -3.9771500        4.5718840       -0.1645610
 H        0.3202520        2.1640460        2.9105650
 H        3.5429410        0.9042120        0.3179260
 C        4.2917450        0.6617260        4.9767530
 C        5.1743060        1.8594270        5.4369640
 H        3.6476970        0.3553330        5.8170580
 H        4.9499050       -0.1941070        4.7553130
 C        6.0569880        1.5261400        6.6634510
 H        5.8165630        2.1780820        4.5984370
 H        4.5240590        2.7187150        5.6744380
 C        6.9379660        2.7095840        7.1220200
 H        6.7029350        0.6633650        6.4226770
 H        5.4122760        1.2050070        7.5006480
 H        7.5539280        2.4326430        7.9922750
 H        6.3234200        3.5776520        7.4098280
 H        7.6195560        3.0337830        6.3193470
