70
Mol_000043_2D_DFT last geometry from G09 out file
 Ru       -0.0960350       -0.0081540        0.5788670
 C       -1.3692730       -0.7480650       -0.4879570
 Cl       -1.2892530       -0.1384520        2.6631230
 Cl        1.8440700       -0.6491960       -0.6906680
 H       -2.0385090       -0.2557820       -1.1956330
 H       -1.4608100       -1.8501750       -0.3915310
 C       -0.2197820        1.8710840        0.1994550
 N        0.6598690        2.8017980        0.7811240
 N       -1.1022100        2.6103230       -0.6293880
 C        0.4009770        4.1886290        0.3317640
 C        1.9288450        2.4587120        1.4425380
 C       -0.7565670        3.9990910       -0.6813830
 H        1.2698410        4.5923240       -0.2022750
 C        3.1084790        2.4067060        0.6423920
 C        1.9623230        2.2691490        2.8544790
 C        4.3416800        2.0766740        1.2694740
 C        4.3786390        1.7758680        2.6622360
 C        3.2053920        1.9149270        3.4588360
 C       -2.2726280        2.1567170       -1.3844290
 C       -3.5427030        2.1746150       -0.7416500
 C       -2.1059280        1.7931800       -2.7517570
 C       -4.6898010        1.8164490       -1.5089990
 C       -4.5488490        1.4417600       -2.8777860
 C       -3.2677540        1.4547290       -3.5046700
 C        0.1117530        5.2332560        1.4467960
 F       -1.0013390        4.9468000        2.2507810
 F        1.2222870        5.3730220        2.3044130
 F       -0.0919760        6.5050270        0.8698950
 F       -0.2988010        4.4182250       -1.9950660
 F       -1.8841700        4.8433820       -0.4637870
 C        3.0865350        2.6780560       -0.8556160
 H        2.0776400        2.6916560       -1.2714270
 H        3.6298110        1.8965340       -1.3997940
 H        3.5685690        3.6407700       -1.0967750
 C        0.7320620        2.4711270        3.7232190
 H        0.5415050        1.5985120        4.3587700
 H       -0.1716780        2.6296650        3.1366100
 H        0.8653900        3.3442540        4.3804800
 C        5.6167280        2.0216620        0.4352190
 H        6.5122950        2.2009670        1.0402470
 H        5.6142130        2.7731910       -0.3635570
 H        5.7367490        1.0370230       -0.0493090
 C        5.6824600        1.3033380        3.2981910
 H        6.2455200        0.6518430        2.6180830
 H        5.5067760        0.7326750        4.2158010
 H        6.3411860        2.1495420        3.5601970
 C        3.2847460        1.6936270        4.9664640
 H        2.4384020        2.1388610        5.4965770
 H        4.1982130        2.1313930        5.3911380
 H        3.2913270        0.6183830        5.2151690
 C       -3.6902530        2.5419450        0.7278260
 H       -2.7307150        2.6337550        1.2367440
 H       -4.2635840        1.7766320        1.2686870
 H       -4.2175920        3.5010940        0.8445920
 C       -0.7285900        1.7102970       -3.3954140
 H       -0.5688290        2.5309470       -4.1110590
 H       -0.6075130        0.7646590       -3.9418550
 H        0.0748590        1.7585190       -2.6592300
 C       -6.0760780        1.8449320       -0.8732630
 H       -6.8192930        2.2847220       -1.5521160
 H       -6.0975160        2.4303140        0.0502970
 H       -6.4274790        0.8295100       -0.6213560
 C       -5.7775450        1.0200300       -3.6770460
 H       -6.5367990        0.5505200       -3.0413000
 H       -5.5260950        0.3002910       -4.4643290
 H       -6.2557550        1.8855860       -4.1681130
 C       -3.1443640        1.1103720       -4.9859570
 H       -2.2070210        1.4740180       -5.4174420
 H       -3.9611070        1.5564740       -5.5689010
 H       -3.1809450        0.0206800       -5.1581500
