61
Mol_000304_2D_DFT last geometry from G09 out file
 Ru        0.0253780        0.1229420        0.2904990
 C       -0.9718350       -0.5213900       -1.0850940
 Cl       -1.4977240        0.2015070        2.1688380
 Cl        2.1926290       -0.3638910       -0.6659820
 H       -1.3294490        0.0121450       -1.9714130
 H       -1.1719170       -1.6135690       -1.0525710
 C       -0.0112720        2.0331330       -0.0518000
 N        1.0113470        2.8492330        0.4116400
 N       -0.9288500        2.8439180       -0.7037840
 C        0.8810510        4.2728550       -0.0463680
 C        1.9390420        2.5024860        1.4725020
 C       -0.5572970        4.3063640       -0.6530310
 H        0.9232230        4.9131610        0.8476550
 H       -0.5185320        4.6793050       -1.6850800
 C        1.4635000        2.3509240        2.7969090
 C        3.3249320        2.3762930        1.2223960
 C        2.3627200        2.0735200        3.8464700
 C        3.7540820        1.9562740        3.6127520
 H        1.9707330        1.9455790        4.8570870
 C        4.2141170        2.1149190        2.2806960
 H        5.2785790        2.0083380        2.0626390
 C       -2.0961050        2.4234270       -1.4456980
 C       -2.1437910        2.6096040       -2.8459770
 C       -3.2138440        1.8575160       -0.7890140
 C       -3.2949390        2.2451040       -3.5749390
 C       -4.4232560        1.6784840       -2.9325960
 H       -3.3071860        2.3929420       -4.6564060
 C       -4.3524520        1.4866720       -1.5285390
 H       -5.1991260        1.0406570       -1.0024450
 H       -1.2799410        3.0172230       -3.3715900
 H       -3.1769370        1.6832190        0.2834500
 C        2.0379790        4.7420060       -0.9928070
 C        1.9276020        6.2622880       -1.2813140
 C        2.1780200        3.9211630       -2.2976650
 H        2.9652600        4.6017400       -0.4139950
 H        1.0395820        6.5086490       -1.8832050
 H        2.8085140        6.6029350       -1.8458320
 H        1.8821060        6.8510480       -0.3514240
 H        3.0930300        4.2198980       -2.8317680
 H        1.3355990        4.0893810       -2.9859310
 H        2.2446060        2.8440970       -2.0959500
 C       -5.6690820        1.2902900       -3.7115760
 H       -5.9691720        0.2527880       -3.4970280
 H       -5.5155710        1.3784360       -4.7957220
 H       -6.5229620        1.9339840       -3.4430040
 C       -1.5351700        5.2503540        0.1386250
 C       -1.8956840        4.7547810        1.5602790
 C       -2.8041240        5.6467680       -0.6600830
 H       -0.9461620        6.1793540        0.2553550
 H       -2.5027180        5.5143180        2.0757610
 H       -1.0050660        4.5742150        2.1778900
 H       -2.4768020        3.8245870        1.5330250
 H       -2.5525090        5.9970860       -1.6736210
 H       -3.3243920        6.4699680       -0.1462330
 H       -3.5124740        4.8157900       -0.7566540
 H        0.3982230        2.4269930        3.0037880
 H        3.6976910        2.4290540        0.2027920
 C        4.7190550        1.6302150        4.7401790
 H        5.6642910        2.1840560        4.6385510
 H        4.9707820        0.5562760        4.7415220
 H        4.2899700        1.8671860        5.7237400
