85
Mol_000306_2D_DFT last geometry from G09 out file
 Ru        0.2932860        0.1491780       -0.4063690
 C       -1.2328180       -0.6812640       -0.9233620
 Cl        0.2474550       -0.4177500        1.9441460
 Cl        1.2512440        0.1595140       -2.6631670
 H       -2.1817710       -0.2686490       -1.2695150
 H       -1.1379270       -1.7899050       -0.9423670
 C       -0.0337980        2.0811880       -0.3111200
 N        0.9866280        2.9273450        0.1422300
 N       -1.0898030        2.8538350       -0.7693840
 C        0.7087210        4.3893000       -0.2078840
 C        1.9882570        2.5580650        1.1738510
 C       -0.7675770        4.3536900       -0.7851730
 H        0.7273020        4.9589150        0.7303120
 H       -0.7189510        4.6462440       -1.8402150
 C        1.6761880        2.8406350        2.5435200
 C        3.2611160        1.9728110        0.8611200
 C        2.6442740        2.6128160        3.5450870
 C        3.9184020        2.0884830        3.2566510
 H        2.3782590        2.8319490        4.5811250
 C        4.1875180        1.7692560        1.9134920
 H        5.1586270        1.3420190        1.6675930
 C       -2.3021180        2.3158820       -1.3874230
 C       -2.4495570        2.3714450       -2.8100370
 C       -3.3496140        1.7532060       -0.5836230
 C       -3.6621190        1.9374660       -3.3924400
 C       -4.7321820        1.4330310       -2.6239340
 H       -3.7598450        1.9811730       -4.4787120
 C       -4.5374880        1.3316140       -1.2312340
 H       -5.3307660        0.8936290       -0.6259880
 C       -1.3502800        2.8432700       -3.7465600
 H       -1.5114090        2.4328370       -4.7520980
 H       -0.3633530        2.5117770       -3.4138280
 H       -1.3368920        3.9404790       -3.8496440
 C       -3.2206520        1.4609510        0.9142010
 C       -4.4394480        1.8345150        1.7956110
 H       -2.3197810        1.9275520        1.3169650
 H       -3.0406250        0.3801560        1.0330470
 H       -5.3282300        1.2344020        1.5543230
 H       -4.7162550        2.8936390        1.6963290
 H       -4.1988470        1.6426430        2.8527960
 C        1.8248520        5.0516070       -1.1604510
 C        3.1408790        5.2480020       -0.3448960
 C        2.0905880        4.2192940       -2.4467720
 C        1.4346200        6.4826380       -1.6450220
 H        2.9567530        5.8403180        0.5652990
 H        3.8715350        5.8014630       -0.9536530
 H        3.6056820        4.3107170       -0.0412750
 H        3.0140670        4.5738880       -2.9282510
 H        1.2817570        4.3426130       -3.1791760
 H        2.2015330        3.1534270       -2.2522750
 H        1.3352120        7.1975580       -0.8193730
 H        0.5134710        6.4976300       -2.2390910
 H        2.2403580        6.8500880       -2.2981040
 C       -6.0377210        1.0056270       -3.2735910
 H       -6.7267830        1.8614190       -3.3747570
 H       -6.5553130        0.2392580       -2.6793520
 H       -5.8742020        0.5997670       -4.2824350
 C       -1.8765230        5.3382010       -0.1481580
 C       -2.3118270        4.9882160        1.2982880
 C       -1.3642980        6.8115470       -0.0927780
 C       -3.1407780        5.3747580       -1.0675730
 H       -1.5291800        5.2272650        2.0261000
 H       -2.5816860        3.9407420        1.4135770
 H       -3.1932190        5.5907540        1.5644690
 H       -2.1397290        7.4243530        0.3903800
 H       -1.1899630        7.2370880       -1.0874820
 H       -0.4504260        6.9220670        0.5023780
 H       -3.7265890        4.4536410       -1.0269800
 H       -2.8715770        5.5629790       -2.1177660
 H       -3.7964480        6.1985560       -0.7471300
 C        0.3293420        3.3531170        3.0157670
 H       -0.4830510        3.0377970        2.3619750
 H        0.3140950        4.4524080        3.0848810
 H        0.1143910        2.9656680        4.0203420
 C        3.7264960        1.5778990       -0.5423370
 C        4.4610100        0.2166470       -0.6487880
 H        4.4062430        2.3588190       -0.9257150
 H        2.8813510        1.5488430       -1.2292950
 H        3.8689530       -0.5965000       -0.2057500
 H        5.4459770        0.2243740       -0.1599290
 H        4.6192530       -0.0253220       -1.7098860
 C        4.9352950        1.8266060        4.3543500
 H        4.7912240        0.8231310        4.7895690
 H        4.8439240        2.5533430        5.1747310
 H        5.9653820        1.8716440        3.9727120
