85
Mol_000060_2D_DFT last geometry from G09 out file
 Ru        0.9987060       -0.5227830        1.2229100
 C       -0.1508090       -1.5412300        0.2528750
 Cl       -0.2192450        0.0048870        3.2508720
 Cl        2.9976030       -1.2414260        0.0532750
 H       -0.6737170       -1.2895450       -0.6749390
 H       -0.2593160       -2.5881790        0.6085410
 C        0.7781710        1.2611300        0.4688200
 N        1.7571320        2.2192890        0.6801420
 N       -0.2473310        1.8539510       -0.2517200
 C        2.8733820        2.0401920        1.5870380
 C        1.5321110        3.4763000       -0.1624560
 C        4.1738650        1.7429510        1.1110950
 C        2.6625030        2.1953460        2.9798390
 C        5.2529880        1.6193440        2.0054980
 C        5.0069840        1.7853200        3.3779470
 H        6.2536150        1.3733300        1.6535010
 C        3.7304390        2.0617030        3.8896810
 H        3.5757690        2.1629310        4.9627600
 C       -0.0727480        3.3981610       -0.3037870
 C       -1.4690130        1.1839350       -0.6415690
 C       -2.4019450        0.7504610        0.3344210
 C       -1.7397500        0.9368130       -2.0094590
 C       -3.5921960        0.1014070       -0.0457970
 C       -3.8374680       -0.1017870       -1.4132700
 H       -4.3086210       -0.2426420        0.6988870
 C       -2.9324380        0.2988950       -2.4081480
 H       -3.1487630        0.1057900       -3.4579510
 F       -5.0286580       -0.7409600       -1.8012950
 C        2.3361450        3.3446290       -1.5110320
 C        2.2405680        2.0676320       -2.3839240
 H        2.1013360        4.2247100       -2.1289100
 H        3.3945660        3.4567100       -1.2425850
 C        3.2789620        2.0846280       -3.5354670
 H        2.4117830        1.1727180       -1.7725780
 H        1.2404390        1.9561450       -2.8240150
 C        3.2101040        0.8246570       -4.4270090
 H        4.2948740        2.1686570       -3.1099220
 H        3.1307260        2.9844860       -4.1595980
 H        3.9708630        0.8583960       -5.2226140
 H        2.2248580        0.7301830       -4.9120180
 H        3.3804900       -0.0880720       -3.8352670
 C        1.9853050        4.7823700        0.5923780
 C        3.4555680        5.2740660        0.5077170
 H        1.3656590        5.6058170        0.2143430
 H        1.7281790        4.6708020        1.6536890
 C        3.6858190        6.5065080        1.4198180
 H        4.1597110        4.4852870        0.8017930
 H        3.7072350        5.5584750       -0.5260710
 C        5.1248840        7.0618850        1.3382330
 H        3.4614630        6.2335890        2.4657780
 H        2.9721340        7.3048980        1.1476800
 H        5.2514310        7.9332510        1.9995560
 H        5.3741440        7.3811220        0.3134940
 H        5.8631880        6.3027650        1.6415860
 C       -0.6415610        3.9867810       -1.6295880
 C       -0.5491510        5.5225600       -1.8419740
 H       -0.1595690        3.4993840       -2.4839320
 H       -1.7033130        3.7122210       -1.6843980
 C       -1.2840680        5.9638890       -3.1333810
 H       -0.9841900        6.0632020       -0.9883420
 H        0.5004030        5.8445450       -1.9149950
 C       -1.1995990        7.4838540       -3.3944870
 H       -2.3446860        5.6635630       -3.0703990
 H       -0.8611770        5.4225310       -3.9980620
 H       -0.1543830        7.8147240       -3.5043020
 H       -1.6472030        8.0578640       -2.5674010
 H       -1.7342530        7.7571930       -4.3174310
 C       -0.8038560        4.0066810        0.9592990
 C       -2.3474460        4.1729890        0.9366500
 H       -0.5290360        3.3942020        1.8301120
 H       -0.3968440        5.0067150        1.1486810
 C       -2.8816940        4.6583660        2.3089400
 H       -2.6410290        4.9083140        0.1715300
 H       -2.8526560        3.2367110        0.6770270
 C       -4.4083260        4.8940460        2.3191970
 H       -2.3680580        5.5940300        2.5941640
 H       -2.6230050        3.9159030        3.0838910
 H       -4.7504350        5.2307710        3.3102630
 H       -4.9569180        3.9710010        2.0727650
 H       -4.7008020        5.6626180        1.5856470
 H        4.3383950        1.5689100        0.0524630
 H        1.6621120        2.3965740        3.3547010
 F        6.0823510        1.6594720        4.2753300
 H       -2.1825670        0.8935250        1.3888980
 H       -1.0138170        1.2215610       -2.7664300
