79
Mol_000198_2D_DFT last geometry from G09 out file
 Ru        0.0698050       -0.0131070       -0.2752760
 C        1.0819540        0.1224600       -1.7838970
 Cl       -1.8988160       -1.1150720       -1.1118340
 Cl        1.4756450       -0.5652310        1.5900910
 H        1.2616520        1.0372980       -2.3526000
 H        1.5105310       -0.8163540       -2.1850640
 C       -0.2096710        1.9269840       -0.0977950
 N        0.7530150        2.8812270        0.2479250
 N       -1.4046290        2.6252990       -0.3093340
 C        0.2296560        4.2756450        0.1340490
 C        2.0964540        2.7031070        0.7786150
 C       -1.3084380        4.1177370        0.0243100
 H        0.6411730        4.7463360       -0.7654980
 H        0.5224840        4.8619490        1.0097540
 C       -2.0604920        4.5464380        1.3213210
 C       -1.9165950        5.1031980       -1.0186440
 C       -2.0832870        6.0967160        1.2587600
 H       -1.5981140        4.1559440        2.2314010
 H       -3.0835140        4.1629150        1.2807690
 C       -1.9882110        6.4593670       -0.2627840
 H       -2.9990410        6.4928130        1.7208050
 H       -1.2387140        6.5293610        1.8152060
 H       -1.0895420        7.0629700       -0.4613370
 H       -2.8488010        7.0533120       -0.6025750
 H       -2.9310100        4.7765500       -1.2847140
 H       -1.3324000        5.1677920       -1.9424310
 C        3.2473700        2.7217110       -0.0687720
 C        2.3115970        2.6002840        2.1925230
 C        4.5285770        2.5030150        0.5039440
 C        4.7341210        2.3183720        1.8825630
 H        5.3887660        2.5005180       -0.1653840
 C        3.6046380        2.4123150        2.7192310
 H        3.7299050        2.3172810        3.7952390
 C       -2.5993480        2.1014520       -0.9502600
 C       -2.7067050        2.0756970       -2.3773940
 C       -3.7402610        1.6925090       -0.1834040
 C       -3.8918580        1.6404590       -3.0119060
 C       -5.0147960        1.2323960       -2.2711460
 H       -3.9309950        1.6121940       -4.0999230
 C       -4.9115030        1.2797980       -0.8688090
 H       -5.7554480        0.9398250       -0.2695030
 C        3.2680070        3.0163310       -1.5470280
 C        2.9992350        4.3182100       -2.0419420
 C        3.7510210        2.0436060       -2.4609090
 C        3.1566540        4.6229060       -3.4101100
 H        2.7123970        5.1117220       -1.3526130
 C        3.6018470        3.6348380       -4.3132120
 H        2.9443640        5.6328780       -3.7652400
 C        3.9069160        2.3445230       -3.8293570
 H        3.7207150        3.8690810       -5.3722330
 H        4.2663550        1.5737940       -4.5132830
 H        3.9965730        1.0450280       -2.0978240
 C        1.2169780        2.7827330        3.2230500
 F        1.5775830        2.3204780        4.5065940
 F       -0.0201420        2.1873710        2.9411340
 F        0.9276750        4.1878450        3.4108990
 C        6.1106810        2.0369900        2.4543550
 H        6.2348840        0.9588230        2.6495950
 H        6.2686980        2.5591200        3.4093150
 H        6.9085710        2.3407500        1.7631900
 C       -1.6454410        2.4908790       -3.3760930
 F       -0.4073950        2.9307340       -2.8791580
 F       -2.1116190        3.5690570       -4.2024320
 F       -1.3357790        1.4474850       -4.2899970
 C       -3.8296830        1.6256570        1.3176460
 C       -4.9286290        2.2517650        1.9695120
 C       -2.9328130        0.8694440        2.1102610
 C       -5.1125510        2.1407600        3.3616780
 H       -5.6353940        2.8424620        1.3838280
 C       -4.2045170        1.3876920        4.1378880
 H       -5.9594110        2.6393880        3.8369290
 C       -3.1173880        0.7521000        3.5030130
 H       -4.3437080        1.2963360        5.2164180
 H       -2.4101190        0.1600680        4.0854080
 H       -2.1085900        0.3406710        1.6441590
 C       -6.2653450        0.7140740       -2.9561860
 H       -6.2048540       -0.3786390       -3.0920010
 H       -6.4002720        1.1606760       -3.9513330
 H       -7.1677500        0.9197840       -2.3634400
