109
Mol_000219_2D_DFT last geometry from G09 out file
 Ru        0.4167240       -0.1487390       -0.9314340
 C       -0.9960610       -1.1648910       -1.4463570
 Cl        0.8836740       -1.2246260        1.1819230
 Cl        1.1679160        0.5075810       -3.1505630
 H       -2.0601280       -0.9243720       -1.4502710
 H       -0.7155360       -2.1768470       -1.8124450
 C       -0.2797450        1.6122310       -0.4108790
 N        0.6053360        2.5578960        0.1169530
 N       -1.5109970        2.2143400       -0.6322030
 C        1.7944460        2.2394150        0.9391400
 C        0.0742580        4.0003220       -0.1322200
 C        3.1382790        2.2069090        0.4228100
 C        1.5921600        2.0014800        2.3434690
 C        4.2074240        2.0474880        1.3401870
 C        4.0312240        1.8820840        2.7244980
 H        5.2233730        2.0388230        0.9470570
 C        2.7052570        1.8403050        3.1954750
 H        2.5215870        1.6584290        4.2562560
 C       -1.5268110        3.7187940       -0.1946300
 C       -2.6812600        1.5198510       -1.1835110
 C       -3.6046260        0.8082080       -0.3345860
 C       -2.9090740        1.5390460       -2.5996370
 C       -4.7471420        0.2187000       -0.9301450
 C       -5.0133860        0.2656460       -2.3128290
 H       -5.4507740       -0.3095410       -0.2871220
 C       -4.0673520        0.9197020       -3.1249930
 H       -4.2209300        0.9516380       -4.2059240
 C       -6.2414770       -0.4118140       -2.9091660
 C       -5.9895480       -1.8888150       -3.3209120
 H       -6.5799730        0.1482250       -3.7957960
 H       -7.0700760       -0.3836980       -2.1833100
 H       -6.9030470       -2.3321800       -3.7473400
 H       -5.6882170       -2.4975200       -2.4551150
 H       -5.1921270       -1.9606220       -4.0757200
 C        0.7198280        4.4501190       -1.5046990
 C        0.5923220        5.9056200       -2.0468920
 H        0.4018970        3.7530780       -2.2888820
 H        1.7884400        4.2691410       -1.3751700
 C        1.5922210        6.1632330       -3.2013680
 H        0.7754500        6.6428830       -1.2518320
 H       -0.4152720        6.1076490       -2.4273340
 H        1.4412710        5.4495180       -4.0268190
 H        1.4635970        7.1783070       -3.6095560
 H        2.6361490        6.0672090       -2.8667660
 C        0.4401070        5.0115580        0.9995590
 C        1.8913750        5.5385170        1.1690550
 H        0.1311420        4.5956270        1.9629390
 H       -0.1947280        5.8917400        0.8257360
 C        1.9601260        6.6197850        2.2739480
 H        2.2666420        5.9742960        0.2336780
 H        2.5735420        4.7249800        1.4335630
 H        1.6362770        6.2208120        3.2486630
 H        2.9909580        6.9879840        2.3939780
 H        1.3216450        7.4868490        2.0372030
 C       -2.2388880        4.6503020       -1.2318020
 C       -3.7890030        4.6701800       -1.3521420
 H       -1.8283660        4.4607130       -2.2250440
 H       -1.9349170        5.6722820       -0.9657400
 C       -4.2518100        5.7318710       -2.3792450
 H       -4.2579580        4.9011370       -0.3866450
 H       -4.1746960        3.6923930       -1.6578790
 H       -3.8478800        5.5283970       -3.3837420
 H       -5.3500270        5.7428000       -2.4599750
 H       -3.9291230        6.7453050       -2.0894070
 C       -2.3012140        3.8100160        1.1753630
 C       -2.6446450        5.1855460        1.8281760
 H       -1.7882910        3.2011670        1.9224610
 H       -3.2567650        3.3140300        0.9831930
 C       -3.7842790        5.0566500        2.8681980
 H       -2.9431650        5.9262970        1.0736780
 H       -1.7707980        5.6057090        2.3398690
 H       -3.5319260        4.3267960        3.6537480
 H       -3.9716610        6.0237980        3.3609470
 H       -4.7275120        4.7319150        2.4023780
 C        3.5499560        2.2715650       -1.0614920
 C        4.2938620        0.9710680       -1.4916240
 C        4.4499710        3.4993750       -1.3902140
 H        2.6501560        2.3323150       -1.6790850
 H        3.7156820        0.0723620       -1.2442380
 H        5.2777550        0.8860320       -1.0071910
 H        4.4483410        0.9759180       -2.5800820
 H        4.6261980        3.5502580       -2.4758360
 H        5.4315660        3.4217450       -0.9001210
 H        3.9999170        4.4489940       -1.0728290
 C        0.2309680        1.8643560        3.0049240
 H       -0.1535180        2.8300920        3.3675390
 H        0.3124200        1.2037650        3.8776860
 H       -0.5053610        1.4187450        2.3365030
 C        5.2155930        1.6784820        3.6607500
 C        5.6027710        0.1837550        3.8365850
 H        4.9840640        2.1022950        4.6515930
 H        6.0909010        2.2284420        3.2787020
 H        4.7646490       -0.3976100        4.2484890
 H        6.4595710        0.0840260        4.5216870
 H        5.8795000       -0.2700560        2.8733980
 C       -3.4320790        0.5735720        1.1819340
 C       -3.1607820       -0.9226040        1.5209390
 C       -4.6579920        1.0645640        2.0082920
 H       -2.5561530        1.1326830        1.5181750
 H       -2.2284580       -1.2802060        1.0727060
 H       -3.9846950       -1.5690790        1.1842810
 H       -3.0667980       -1.0426270        2.6115030
 H       -5.5328610        0.4160330        1.8560730
 H       -4.9573490        2.0887120        1.7504300
 H       -4.4177190        1.0395760        3.0825510
 C       -1.9767130        2.1712510       -3.6204370
 H       -1.0004090        2.4202420       -3.2114740
 H       -2.4272810        3.0762560       -4.0581460
 H       -1.7986100        1.4681450       -4.4455270
