79
Mol_000224_2D_DFT last geometry from G09 out file
 Ru        0.3762850       -0.5494320        0.1144680
 C       -1.0880700       -1.3103540       -0.6441490
 Cl       -0.1598240       -0.9107200        2.4332740
 Cl        1.9141470       -0.7912880       -1.7438830
 H       -1.9849630       -0.8666050       -1.0789110
 H       -1.0433020       -2.4212200       -0.6535900
 C        0.1527950        1.3909700        0.0053710
 N        1.1027520        2.2328620        0.5849190
 N       -0.7546540        2.1908760       -0.6726250
 C        2.1965990        1.7096460        1.3918810
 C        1.0853000        3.6319660       -0.0892930
 C        3.2947720        1.1159460        0.7208010
 C        2.2287170        1.7466680        2.8239790
 C        4.4010850        0.5896800        1.4131760
 C        4.4376430        0.6523730        2.8167390
 H        5.2141400        0.1280260        0.8520540
 C        3.3550530        1.2249550        3.5068630
 H        3.3701100        1.2461650        4.5946520
 C       -0.4961270        3.7147190       -0.4215090
 C       -2.0223400        1.6837010       -1.1498530
 C       -3.0272000        1.4364160       -0.1768740
 C       -2.3319000        1.4099540       -2.5156230
 C       -4.3149540        0.9982570       -0.5292740
 C       -4.6313440        0.7837840       -1.8862610
 H       -5.0568660        0.8190540        0.2496280
 C       -3.6396750        0.9764280       -2.8617480
 H       -3.8706250        0.7731780       -3.9064700
 H       -5.6263300        0.4506450       -2.1818120
 C        2.0306320        3.5062410       -1.3510590
 C        2.3831900        4.7386550       -2.2359250
 H        1.6526040        2.7062120       -1.9963570
 H        2.9851200        3.1436450       -0.9506060
 C        3.6534220        4.4691720       -3.0785960
 H        2.5461310        5.6390850       -1.6259990
 H        1.5647400        4.9766190       -2.9257180
 H        3.5286330        3.5767300       -3.7116330
 H        3.8726370        5.3210020       -3.7414530
 H        4.5366600        4.3054790       -2.4406780
 C        1.5584500        4.7766300        0.8560620
 C        3.0724400        4.9636370        1.1529450
 H        1.0420370        4.6830030        1.8139350
 H        1.2025050        5.7148840        0.4061560
 C        3.3143880        6.2058250        2.0430040
 H        3.6461980        5.0827240        0.2245270
 H        3.4847110        4.0846350        1.6627070
 H        2.8013550        6.1112350        3.0119010
 H        4.3889170        6.3356470        2.2455710
 H        2.9538620        7.1273190        1.5573480
 C       -0.7889710        4.5936120       -1.6791840
 C       -2.2491240        4.9875470       -2.0388880
 H       -0.3416690        4.1181460       -2.5554710
 H       -0.2383370        5.5333700       -1.5281250
 C       -2.2839640        5.9167000       -3.2758260
 H       -2.7348580        5.5064290       -1.2026260
 H       -2.8603910        4.1025080       -2.2508760
 H       -1.8548510        5.4243910       -4.1611730
 H       -3.3197030        6.1988540       -3.5210180
 H       -1.7192430        6.8462850       -3.0976380
 C       -1.4269820        4.1337030        0.7802220
 C       -1.5223950        5.6133780        1.2613650
 H       -1.1930840        3.5047100        1.6428860
 H       -2.4406540        3.8567610        0.4649480
 C       -2.8187320        5.8501470        2.0730610
 H       -1.4984590        6.3156400        0.4159410
 H       -0.6715690        5.8735280        1.9019140
 H       -3.7190060        5.6840210        1.4599970
 H       -2.8740590        5.1735700        2.9404360
 H       -2.8593370        6.8826730        2.4540220
 H        3.2615770        1.0345560       -0.3594760
 C        1.1725790        2.3382080        3.7346660
 F       -0.1330910        2.3920100        3.2336060
 F        1.4956530        3.6980270        4.0958570
 F        1.0853230        1.6584210        4.9704190
 H        5.2834730        0.2495040        3.3741350
 H       -2.7705780        1.5662010        0.8712860
 C       -1.3892890        1.5050690       -3.6980750
 F       -0.0440610        1.7469140       -3.4191190
 F       -1.7927890        2.5453560       -4.6029580
 F       -1.4232670        0.3166310       -4.4754670
