97
Mol_000221_2D_DFT last geometry from G09 out file
 Ru        0.3057270       -0.6499490       -0.2918300
 C       -0.8964940       -1.6965190       -1.1604830
 Cl       -0.1191680       -1.3142930        1.9882820
 Cl        1.7883040       -0.1761740       -2.1548430
 H       -1.8817590       -1.4585890       -1.5655460
 H       -0.5519380       -2.7455490       -1.2961680
 C       -0.4743040        1.1303970       -0.1791200
 N        0.2486340        2.1488120        0.4290380
 N       -1.6526370        1.6867490       -0.6369210
 C        1.4380130        1.9093050        1.2075550
 C       -0.2933080        3.5371810        0.0334310
 C        2.7109100        1.7233290        0.6149170
 C        1.3898680        1.8504190        2.6212250
 C        3.8536690        1.4772200        1.3998590
 C        3.7780640        1.4076820        2.8127640
 H        4.8120950        1.3263860        0.9011110
 C        2.5140670        1.6083480        3.4179380
 H        2.3894730        1.5597160        4.4994750
 C       -1.8474780        3.1354990       -0.1061670
 C       -2.6601970        0.9776660       -1.3688080
 C       -3.6675360        0.2224040       -0.7194570
 C       -2.7074310        1.0032310       -2.7815170
 C       -4.6670600       -0.4476150       -1.4502380
 C       -4.6982310       -0.4035310       -2.8678910
 H       -5.4242160       -1.0191700       -0.9115960
 C       -3.6898350        0.3386590       -3.5288550
 H       -3.6558970        0.4045430       -4.6162850
 C       -5.7536430       -1.1628870       -3.6619310
 C       -5.3178970       -2.6084550       -4.0299580
 H       -5.9865120       -0.6164770       -4.5896050
 H       -6.6878460       -1.2114510       -3.0804690
 H       -4.4050820       -2.6056170       -4.6440950
 H       -6.1116030       -3.1134160       -4.6017970
 H       -5.1156360       -3.2056010       -3.1282930
 C        0.4346500        3.8772860       -1.3285960
 C        0.2722720        5.2657250       -2.0126050
 H        1.5044750        3.7526580       -1.1110570
 H        0.1884150        3.0944050       -2.0572820
 C        1.4283940        5.5399460       -3.0094470
 H       -0.6727360        5.3205880       -2.5686330
 H        0.2428910        6.0805470       -1.2739540
 C        1.2702030        6.8702290       -3.7784000
 H        1.4895000        4.7067430       -3.7306740
 H        2.3889180        5.5460690       -2.4648110
 H        1.2352270        7.7304060       -3.0900550
 H        0.3428200        6.8803110       -4.3734510
 H        2.1117940        7.0303800       -4.4705700
 C       -0.0417830        4.6240760        1.1216710
 C        1.3709210        5.2525540        1.2753440
 H       -0.7421890        5.4465900        0.9131240
 H       -0.3309820        4.2139790        2.0934870
 C        1.3992510        6.2939960        2.4234200
 H        2.1238130        4.4828340        1.4844160
 H        1.6846660        5.7506400        0.3479090
 C        2.7818230        6.9580620        2.6072660
 H        1.1032090        5.8055380        3.3683800
 H        0.6434580        7.0764380        2.2297900
 H        3.0951570        7.4901490        1.6946000
 H        3.5556630        6.2090280        2.8393310
 H        2.7656000        7.6888320        3.4312060
 C       -2.6106270        4.0481300       -1.1152960
 C       -4.1568820        3.9604130       -1.2390830
 H       -2.3695140        5.0851230       -0.8383360
 H       -2.1844850        3.8916820       -2.1113550
 C       -4.6912430        4.9589550       -2.2981160
 H       -4.4761220        2.9500710       -1.5221460
 H       -4.6423860        4.1817690       -0.2787930
 C       -6.2281290        4.9211040       -2.4489260
 H       -4.2251240        4.7410700       -3.2750980
 H       -4.3783550        5.9836430       -2.0285190
 H       -6.5707140        5.6405020       -3.2092910
 H       -6.7299110        5.1728550       -1.5007240
 H       -6.5744740        3.9208260       -2.7546720
 C       -2.6234240        2.9682460        1.2580310
 C       -3.1216690        4.2033940        2.0645150
 H       -3.5166850        2.3814670        1.0048160
 H       -2.0207400        2.3346250        1.9209970
 C       -4.2600330        3.8147030        3.0433470
 H       -2.3056740        4.6409960        2.6532660
 H       -3.4845620        5.0011610        1.3996080
 C       -4.7341530        4.9896210        3.9270080
 H       -3.9145120        2.9896110        3.6901440
 H       -5.1184680        3.4201710        2.4712620
 H       -5.5440430        4.6752600        4.6039670
 H       -5.1144410        5.8239710        3.3154270
 H       -3.9120420        5.3785590        4.5489050
 H        2.7922470        1.7448740       -0.4679330
 F        0.1634140        2.0464030        3.2809660
 C        5.0019940        1.0796710        3.6575050
 C        5.1815480       -0.4464500        3.8907730
 H        4.9277880        1.5818120        4.6353360
 H        5.9064550        1.4726100        3.1664700
 H        6.0754140       -0.6379680        4.5046010
 H        5.2993280       -0.9824580        2.9374200
 H        4.3110050       -0.8747430        4.4090370
 H       -3.6399250        0.1415510        0.3656660
 F       -1.7348040        1.7289120       -3.4898090
