55
Mol_000222_2D_DFT last geometry from G09 out file
 Ru        0.0931950       -0.2517700        0.3072780
 C       -1.5461370       -0.8858250       -0.1635890
 Cl       -0.1362000       -0.2940450        2.6906070
 Cl        1.2735030       -0.9292180       -1.6602720
 H       -2.3992910       -0.3567250       -0.5892640
 H       -1.6603020       -1.9793470       -0.0139540
 C        0.0024840        1.6141960       -0.0401690
 N        1.1695420        2.4329450        0.0296010
 N       -1.0683920        2.4850550       -0.3647820
 C        2.3830690        2.0862920        0.7856920
 C        0.8931180        3.7534400       -0.4963180
 C        3.6520690        1.7795200        0.2024740
 C        2.2260410        2.1458960        2.1948100
 C        4.7184880        1.5289600        1.1071190
 C        4.5391660        1.5801010        2.4949670
 H        5.7016220        1.2901030        0.7111310
 C        3.2932810        1.8849880        3.0665510
 H        3.1520480        1.9202400        4.1445280
 C       -0.6475380        3.8708540       -0.2513180
 C       -2.3468280        2.0972050       -0.9557860
 C       -3.5664160        2.0205020       -0.2218280
 C       -2.3076750        1.8186290       -2.3450910
 C       -4.7320120        1.6741160       -0.9573430
 C       -4.6779820        1.4079890       -2.3321290
 H       -5.6867480        1.6082570       -0.4414140
 C       -3.4693690        1.4653970       -3.0499690
 H       -3.4316420        1.2506700       -4.1160210
 Cl       -6.2072320        0.9713750       -3.2065530
 Cl        1.1788120        3.7946800       -2.4299970
 Cl        1.9176510        5.1022680        0.1812210
 Cl       -1.5521610        5.0543720       -1.3080650
 Cl       -0.9041990        4.5201040        1.5744500
 C        3.9667100        1.7348150       -1.3008650
 C        4.7114490        0.4356380       -1.7204860
 C        4.7967540        2.9805210       -1.7343970
 H        3.0183640        1.7527170       -1.8479700
 H        4.1848710       -0.4621110       -1.3763570
 H        5.7425840        0.4060280       -1.3384760
 H        4.7689040        0.3907090       -2.8183380
 H        4.9644380        2.9514670       -2.8214610
 H        5.7810810        2.9925700       -1.2426570
 H        4.2867040        3.9216480       -1.4971490
 H        1.2549940        2.3947350        2.6124410
 Cl        5.9569580        1.2476940        3.5795590
 C       -3.6971520        2.2646130        1.2886090
 C       -4.2382720        1.0162890        2.0432400
 C       -4.5786670        3.5116020        1.5873140
 H       -2.6970220        2.4650400        1.6871500
 H       -3.5905460        0.1419390        1.8965180
 H       -5.2585250        0.7499670        1.7300020
 H       -4.2660140        1.2267240        3.1225720
 H       -4.5817350        3.7128740        2.6688020
 H       -5.6217810        3.3567380        1.2736300
 H       -4.1993210        4.4077120        1.0786300
 H       -1.3587410        1.8791460       -2.8741790
