95
Mol_000223_2D_DFT last geometry from G09 out file
 Ru       -0.0279300        0.4532180        0.1851480
 C       -1.1485780       -0.2960470       -1.0317340
 Cl       -1.3772770        0.0816130        2.1514630
 Cl        2.0660520       -0.0438870       -0.9111330
 H       -1.8064860        0.1969840       -1.7500660
 H       -1.1642100       -1.4067080       -1.0256480
 C       -0.2265860        2.3783340       -0.1118190
 N        0.5319380        3.3288840        0.6126520
 N       -1.0483550        3.0938580       -1.0012250
 C        0.3946130        4.6752320       -0.0546140
 C        1.6234120        3.0397780        1.5594540
 C        0.5711720        5.9885530        0.7220400
 C       -1.0089260        4.5622950       -0.6469520
 H        1.1130690        4.7039140       -0.8881100
 C        0.3147050        7.1503430       -0.2822920
 H        1.5845540        6.0686280        1.1417500
 H       -0.1376990        6.0616800        1.5564580
 C       -1.0469510        7.0244790       -1.0195360
 H        1.1301630        7.1758010       -1.0256380
 H        0.3532750        8.1103400        0.2569740
 C       -1.2405350        5.6441980       -1.7134420
 H       -1.8668860        7.1865200       -0.2986010
 H       -1.1320320        7.8231960       -1.7736870
 H       -2.2518420        5.5746350       -2.1388910
 H       -0.5259640        5.5436440       -2.5410650
 H       -1.7531310        4.7290670        0.1490560
 C        1.4119180        2.9500390        2.9869140
 C        2.9563290        2.9146030        1.0085760
 C        2.5380640        2.5534180        3.7647730
 C        3.8046130        2.3191470        3.2238130
 H        2.4209860        2.4409080        4.8381920
 C        4.0187250        2.5392810        1.8562860
 H        5.0156530        2.4065510        1.4469040
 C       -2.1278610        2.6139770       -1.8635430
 C       -1.9413660        2.3736010       -3.2761460
 C       -3.4305070        2.4729740       -1.2646540
 C       -3.1001310        1.9981180       -4.0136710
 C       -4.3659380        1.8375180       -3.4363180
 H       -3.0074680        1.8130040       -5.0805650
 C       -4.5234550        2.0676600       -2.0640100
 H       -5.4986240        1.9274500       -1.5963130
 C        0.1755870        3.3699580        3.8756450
 C       -1.1725520        3.6144170        3.1536630
 C       -0.1174580        2.2902030        4.9748900
 C        0.5741620        4.7088390        4.5934070
 H       -1.5352950        2.7022440        2.6776940
 H       -1.1130050        4.4105930        2.4103300
 H       -1.9169280        3.9208840        3.9042040
 H        0.6770260        2.2106260        5.7278780
 H       -0.2712220        1.3036570        4.5235150
 H       -1.0367350        2.5647460        5.5136040
 H        1.4802020        4.5940190        5.2032930
 H       -0.2423000        5.0301830        5.2586690
 H        0.7597970        5.5142070        3.8686050
 C        3.2745730        3.2421090       -0.4563810
 C        4.6588790        2.8046320       -0.9952870
 H        2.5077890        2.8044930       -1.1009670
 H        3.2100180        4.3383120       -0.5801710
 C        4.8367720        3.1262160       -2.4992880
 H        5.4649500        3.3115280       -0.4381660
 H        4.7872930        1.7222610       -0.8431140
 C        6.2322720        2.7419060       -3.0395490
 H        4.6672460        4.2052690       -2.6697880
 H        4.0657780        2.5917360       -3.0782440
 H        6.3229640        2.9774090       -4.1119710
 H        6.4211110        1.6636260       -2.9168480
 H        7.0315260        3.2845380       -2.5090370
 H        4.6249490        1.9997490        3.8687150
 C       -0.6381640        2.4368420       -4.1617620
 C       -0.8422500        3.5189140       -5.2774290
 C        0.6947470        2.7657830       -3.4454160
 C       -0.4142630        1.0385470       -4.8390920
 H       -1.0040490        4.5141830       -4.8387060
 H       -1.6968320        3.3012050       -5.9311550
 H        0.0555310        3.5698630       -5.9119970
 H        0.9355040        2.0295170       -2.6766350
 H        0.6970920        3.7638330       -3.0006240
 H        1.5031680        2.7393180       -4.1914090
 H        0.4687130        1.0865960       -5.4939290
 H       -1.2628650        0.7137310       -5.4540440
 H       -0.2248770        0.2650860       -4.0819660
 C       -3.7411620        2.7048590        0.2147880
 C       -4.7039610        3.9023690        0.4752560
 H       -4.2194280        1.7922770        0.6064690
 H       -2.8315360        2.8305470        0.8023110
 C       -5.1615310        4.0075900        1.9503190
 H       -4.2172910        4.8460420        0.1743580
 H       -5.5959350        3.8048000       -0.1644460
 C       -6.1216860        5.1906860        2.2063090
 H       -4.2813930        4.1036960        2.6062510
 H       -5.6584350        3.0656410        2.2414300
 H       -7.0342380        5.1060330        1.5944680
 H       -5.6452450        6.1543270        1.9629540
 H       -6.4307150        5.2287260        3.2628260
 H       -5.2133030        1.5301230       -4.0511030
