79
Mol_000149_2D_DFT last geometry from G09 out file
 Ru       -0.3789860        0.0408590        0.3902150
 C       -1.9448120       -0.5435860       -0.3178460
 Cl       -1.0164600        0.2388200        2.7197660
 Cl        1.0235250       -0.7711120       -1.4078600
 H       -2.6812660       -0.0187540       -0.9288730
 H       -2.1398490       -1.6224820       -0.1323540
 C       -0.2777780        1.9487610       -0.0025580
 N        0.9107920        2.6478310        0.2085570
 N       -1.2390240        2.8507550       -0.4312350
 C        1.9568960        2.1576530        1.1105380
 C        0.8249850        4.0937780       -0.3553630
 C        3.2162370        1.6154720        0.6844060
 C        1.6777470        2.2655170        2.4975020
 C        4.1260930        1.2103320        1.6959390
 C        3.8179390        1.3378470        3.0572840
 H        5.0859680        0.7895940        1.4131510
 C        2.5900850        1.8605330        3.4860020
 H        2.3379170        1.9372630        4.5415200
 C       -0.7662150        4.3221170       -0.2282020
 C       -2.4326580        2.4875000       -1.1754650
 C       -3.7286370        2.3509810       -0.5823310
 C       -2.2707260        2.2727570       -2.5677050
 C       -4.8210360        2.0853180       -1.4506420
 C       -4.6340280        1.9199180       -2.8303590
 H       -5.8230600        1.9969860       -1.0387900
 C       -3.3574040        1.9851980       -3.4124430
 H       -3.2097980        1.8192930       -4.4779070
 Cl       -6.0783390        1.5896410       -3.8849920
 C        1.3546490        4.0076740       -1.8393160
 C        1.5811320        5.2871120       -2.6910390
 H        2.3209230        3.5048660       -1.7678990
 H        0.7122220        3.3147700       -2.3996930
 H        2.0779250        6.0917250       -2.1345510
 H        0.6611130        5.7000070       -3.1181920
 H        2.2378850        5.0278320       -3.5369420
 C        1.6371850        5.1247240        0.4874060
 C        3.1819270        5.1758010        0.3842820
 H        1.2573170        6.1168560        0.2055060
 H        1.3854100        4.9893780        1.5444110
 H        3.6623250        4.2888760        0.8070080
 H        3.5365930        6.0422850        0.9650620
 H        3.5454090        5.3057660       -0.6418370
 C       -1.3161270        5.2986680       -1.3142400
 C       -2.7891400        5.7762530       -1.2585320
 H       -0.6816220        6.1948080       -1.2672780
 H       -1.1496120        4.8596610       -2.3031640
 H       -3.5061830        4.9655670       -1.4167490
 H       -2.9440900        6.5079070       -2.0676520
 H       -3.0458850        6.2780870       -0.3181410
 C       -1.2719300        4.7338910        1.2084610
 C       -1.1146550        6.1879410        1.7336780
 H       -2.3440180        4.5203900        1.1998860
 H       -0.8430190        4.0420480        1.9449440
 H       -1.3469020        6.9484170        0.9776010
 H       -0.1152610        6.4051760        2.1251320
 H       -1.8217800        6.3341570        2.5658550
 C        3.6513220        1.5007960       -0.7764210
 C        4.6500610        0.3672170       -1.1248380
 H        4.1170980        2.4575210       -1.0734470
 H        2.7618060        1.3670460       -1.3990990
 C        4.9060340        0.2764470       -2.6457320
 H        4.2503760       -0.5931610       -0.7661650
 H        5.6164780        0.5279990       -0.6192230
 H        5.3172210        1.2188650       -3.0443290
 H        5.6282730       -0.5232690       -2.8719960
 H        3.9766970        0.0514840       -3.1898700
 H        0.7107250        2.6440420        2.8126530
 Cl        5.0425340        0.8038380        4.2920920
 C       -3.9918430        2.4640880        0.9195050
 C       -4.9612830        1.4105600        1.5241930
 H       -4.4077360        3.4651100        1.1346460
 H       -3.0417280        2.3892540        1.4565190
 C       -5.1162990        1.5811360        3.0517590
 H       -4.5802880        0.3999050        1.3109080
 H       -5.9570740        1.4824400        1.0580690
 H       -5.5139910        2.5769170        3.3081120
 H       -5.8117320        0.8302370        3.4575390
 H       -4.1513560        1.4536770        3.5633720
 H       -1.2708930        2.3132170       -2.9949120
