79
Mol_000267_2D_DFT last geometry from G09 out file
 Ru        0.4545390        0.1893140       -0.5165000
 C       -1.0256450       -0.7026760       -1.0652440
 Cl        0.4852110       -0.5202280        1.7933010
 Cl        1.4644700        0.3877620       -2.7329960
 H       -2.0225170       -0.3438070       -1.3254320
 H       -0.8495610       -1.7949420       -1.1833620
 C        0.0224670        2.0924540       -0.2913910
 N        0.9640120        2.9625380        0.2841840
 N       -1.0167100        2.8462110       -0.8021110
 C        0.6708920        4.4195710       -0.0479340
 C        1.8799830        2.6090660        1.3785030
 C       -0.7498830        4.3620270       -0.7458330
 H        0.6069760        4.9634550        0.8991720
 H       -0.6034590        4.6379610       -1.7911730
 C        1.5719060        2.9884720        2.7352130
 C        3.1241710        1.9544240        1.1302870
 C        2.4983010        2.7390410        3.7775320
 C        3.7115720        2.0830370        3.5247830
 H        2.2392500        3.0402280        4.7886390
 C        4.0015290        1.6899880        2.2138300
 H        4.9378900        1.1712460        1.9999280
 C       -2.2071820        2.2698030       -1.4134250
 C       -2.4278440        2.2823700       -2.8328600
 C       -3.1879980        1.6478400       -0.5703870
 C       -3.6410470        1.7800830       -3.3680110
 C       -4.6384910        1.2577690       -2.5308680
 H       -3.7821810        1.7915580       -4.4463410
 C       -4.3930740        1.1769490       -1.1515470
 H       -5.1412870        0.7298360       -0.4947140
 C       -1.4338700        2.7734400       -3.8499610
 O       -1.4095200        1.9166250       -4.9473370
 O       -0.7370520        3.8102160       -3.7969520
 C       -0.4363490        2.2340590       -6.0186820
 H       -0.6037490        1.4611350       -6.7761490
 H       -0.6220030        3.2374370       -6.4263560
 H        0.5838770        2.1746300       -5.6194000
 C       -3.0106730        1.3998960        0.9171930
 H       -2.2024320        1.9706040        1.3659610
 H       -2.7850550        0.3376340        1.0942020
 H       -3.9423030        1.6293790        1.4546630
 C        1.8308000        5.1420210       -0.8966090
 C        3.1262530        5.2559670       -0.0339990
 C        2.1549730        4.4282800       -2.2372690
 C        1.4345730        6.6103210       -1.2485680
 H        3.6339420        4.2982870        0.0954630
 H        2.9180170        5.6708730        0.9643920
 H        3.8346390        5.9357260       -0.5311790
 H        1.3518470        4.5492340       -2.9708980
 H        2.3276050        3.3573770       -2.1169950
 H        3.0680790        4.8671340       -2.6684290
 H        2.2232950        7.0373420       -1.8855300
 H        1.3617220        7.2469490       -0.3558770
 H        0.4977410        6.6782600       -1.8131760
 H       -5.5766820        0.8942840       -2.9516390
 C       -1.9381380        5.3568120       -0.2310610
 C       -3.0998380        4.7132450        0.5787970
 C       -1.4039080        6.5114010        0.6748860
 C       -2.5677600        6.0077020       -1.5062960
 H       -2.7378590        4.1831940        1.4607270
 H       -3.7083410        4.0380580       -0.0269680
 H       -3.7665230        5.5202030        0.9205260
 H       -2.2378970        7.1963140        0.8897510
 H       -0.6174950        7.1039880        0.2047940
 H       -1.0375450        6.1393930        1.6402870
 H       -2.9998720        5.2483750       -2.1710030
 H       -1.8304050        6.5789360       -2.0881580
 H       -3.3738200        6.6995710       -1.2181500
 C        0.2515840        3.5408640        3.1680990
 O        0.3715060        4.3005820        4.3447510
 O       -0.8570700        3.3556010        2.6247590
 C       -0.8882950        4.7679670        4.9628480
 H       -0.5729850        5.2644330        5.8870230
 H       -1.4067470        5.4741060        4.3001010
 H       -1.5511710        3.9187580        5.1788640
 C        3.6240960        1.5071770       -0.2297230
 H        4.6244240        1.9239230       -0.4244830
 H        2.9777280        1.7922250       -1.0545850
 H        3.7276690        0.4120770       -0.2593860
 H        4.4087940        1.8772360        4.3373890
