67
Mol_000292_2D_DFT last geometry from G09 out file
 Ru        0.1531430       -0.1637370       -0.2685850
 C       -1.4838200       -0.8578490       -0.6312600
 Cl        0.2719600       -0.7157710        2.0781700
 Cl        1.0364070       -0.1146690       -2.5294400
 H       -2.4486440       -0.3570530       -0.7308400
 H       -1.4842170       -1.9610530       -0.7714320
 C       -0.0674850        1.7643710       -0.1955970
 N        1.0593020        2.5733010       -0.0059740
 N       -1.1548200        2.5883850       -0.4373030
 C        2.1812620        2.2495890        0.8792960
 C        0.7854340        3.9979540       -0.5170520
 C        3.5135930        1.9726420        0.4366650
 C        1.8970770        2.2891190        2.2711330
 C        4.5025770        1.7905030        1.4424870
 C        4.2171800        1.8532110        2.8165420
 H        5.5264180        1.5814610        1.1336980
 C        2.8935420        2.0908030        3.2383880
 H        2.6373000        2.1098850        4.2982890
 C       -0.7852510        4.0806420       -0.2878360
 C       -2.4363090        2.1698110       -0.9851700
 C       -3.6006700        1.9597070       -0.1813680
 C       -2.4971850        1.9850410       -2.3909610
 C       -4.8003950        1.6140010       -0.8622810
 C       -4.8630350        1.4569380       -2.2586020
 H       -5.7059840        1.4502410       -0.2782040
 C       -3.6959590        1.6297520       -3.0322100
 H       -3.7147170        1.4843790       -4.1130480
 H       -5.8071780        1.1879180       -2.7353240
 C        1.1665710        4.0661210       -2.0235170
 H        2.2423130        3.9139080       -2.1426450
 H        0.9264720        5.0523920       -2.4427850
 H        0.6555620        3.2951200       -2.6104390
 C        1.5876610        5.0716800        0.2487320
 H        1.2813440        6.0701280       -0.0944450
 H        2.6595780        4.9679920        0.0439270
 H        1.4517670        5.0216070        1.3326890
 C       -1.5245430        4.9694400       -1.3146980
 H       -2.6017180        4.9860020       -1.1045180
 H       -1.3914700        4.6394260       -2.3481770
 H       -1.1554290        6.0015570       -1.2322140
 C       -1.1625320        4.5783850        1.1342900
 H       -2.2471270        4.5496450        1.2671790
 H       -0.8482900        5.6216980        1.2694590
 H       -0.7012850        3.9744730        1.9229120
 C        3.9447280        1.8299600       -1.0322420
 C        4.5863090        0.4401450       -1.3134250
 C        4.9222510        2.9604150       -1.4692830
 H        3.0482450        1.8867450       -1.6575540
 H        5.5450940        0.3139890       -0.7890550
 H        4.7755190        0.3310640       -2.3918550
 H        3.9176100       -0.3756070       -1.0113190
 H        5.1482410        2.8685530       -2.5430160
 H        5.8753270        2.9013480       -0.9229230
 H        4.5057950        3.9632530       -1.2957540
 H        0.8705130        2.4517090        2.5900990
 H        5.0134660        1.7018510        3.5474050
 C       -3.6199900        2.0292300        1.3560630
 C       -3.9022820        0.6410410        2.0027870
 C       -4.6399280        3.0796360        1.8842670
 H       -2.6210450        2.3259110        1.6933110
 H       -3.1266800       -0.0887390        1.7414380
 H       -4.8796660        0.2381310        1.6984840
 H       -3.9062470        0.7373600        3.0994320
 H       -5.6771910        2.7709890        1.6879050
 H       -4.4977650        4.0671440        1.4212990
 H       -4.5317870        3.1951350        2.9737110
 H       -1.5836160        2.0932430       -2.9722060
