91
Mol_000245_2D_DFT last geometry from G09 out file
 Ru        0.3259330       -0.4834770       -0.3039190
 C       -1.3078250       -1.1638810       -0.6994600
 Cl        0.4233100       -1.1060940        2.0276120
 Cl        1.1756290       -0.3922280       -2.5895590
 H       -2.2673940       -0.6624330       -0.8313590
 H       -1.3045170       -2.2674510       -0.8412900
 C        0.1633800        1.4534320       -0.1570070
 N        1.2998780        2.2054900        0.1536290
 N       -0.8644590        2.3176280       -0.4807340
 C        2.3085890        1.7977490        1.1412580
 C        1.1568110        3.6468000       -0.4068370
 C        3.5759420        1.2064840        0.8333410
 C        1.9693820        2.0541290        2.4969330
 C        4.4525410        0.9555010        1.9249510
 C        4.1207790        1.2439710        3.2584910
 H        5.4237250        0.5071610        1.7175140
 C        2.8546030        1.7884880        3.5520010
 H        2.5537920        1.9856690        4.5818400
 C       -0.4505240        3.8135120       -0.3148630
 C       -2.1161310        1.8897410       -1.0927130
 C       -3.3084350        1.6161420       -0.3469790
 C       -2.1064910        1.7249010       -2.5020610
 C       -4.4625210        1.2485480       -1.0923320
 C       -4.4576190        1.1228420       -2.4933530
 H       -5.3875610        1.0402830       -0.5549180
 C       -3.2617510        1.3470010       -3.2067890
 H       -3.2231020        1.2185750       -4.2892410
 H       -5.3698480        0.8343660       -3.0184070
 C        1.7313330        3.5577410       -1.8772760
 C        1.9480680        4.8244110       -2.7563640
 H        1.1330380        2.8310820       -2.4424480
 H        2.7128360        3.0853500       -1.7624840
 C        2.8726600        4.5145130       -3.9591690
 H        2.3912760        5.6443730       -2.1730290
 H        0.9977790        5.2065640       -3.1490530
 H        2.9883990        5.3997050       -4.6045230
 H        3.8772370        4.2067420       -3.6289930
 H        2.4640150        3.6996950       -4.5774210
 C        1.9000570        4.7283820        0.4340030
 C        3.4467400        4.8455040        0.3904200
 H        1.6178290        4.6155780        1.4855890
 H        1.4944360        5.6969400        0.1068930
 C        3.9322910        6.0738970        1.1959410
 H        3.8099960        4.9385800       -0.6413730
 H        3.9114190        3.9476000        0.8103140
 H        3.5260560        7.0144860        0.7890220
 H        3.6296410        6.0068260        2.2531510
 H        5.0306990        6.1469140        1.1705370
 C       -1.0118000        4.7210630       -1.4564230
 C       -2.5043550        5.1522580       -1.4640980
 H       -0.8029390        4.2447180       -2.4199730
 H       -0.4127140        5.6429460       -1.4347580
 C       -2.8067180        6.0799660       -2.6649740
 H       -2.7665750        5.6851320       -0.5401110
 H       -3.1642530        4.2799380       -1.5214730
 H       -3.8635670        6.3890680       -2.6624710
 H       -2.1917170        6.9943260       -2.6373560
 H       -2.6116260        5.5735100       -3.6235120
 C       -1.0078330        4.2734470        1.0866700
 C       -0.9209190        5.7565460        1.5590570
 H       -0.5747300        3.6325430        1.8658390
 H       -2.0725850        4.0264960        1.0581610
 C       -1.8899200        6.0323470        2.7344800
 H       -1.1567640        6.4480240        0.7378460
 H        0.0922040        6.0103200        1.8909580
 H       -1.6844240        5.3667560        3.5881800
 H       -1.7866920        7.0696280        3.0899910
 H       -2.9405780        5.8829240        2.4411290
 C        4.0474610        0.7864770       -0.5693050
 C        4.3601150       -0.7380860       -0.6307150
 C        5.2885000        1.5915580       -1.0533930
 H        3.2336330        0.9682660       -1.2781180
 H        5.2501030       -0.9973060       -0.0380940
 H        4.5463730       -1.0357810       -1.6726280
 H        3.5204960       -1.3389240       -0.2580930
 H        6.1651530        1.4088320       -0.4140090
 H        5.1034960        2.6735890       -1.0633450
 H        5.5536980        1.2834100       -2.0764960
 H        0.9802820        2.4445900        2.7226820
 H        4.8314340        1.0276100        4.0580120
 C       -3.4153460        1.6458150        1.1899000
 C       -3.6968700        0.2387360        1.7952280
 C       -4.4972200        2.6523020        1.6811810
 H       -2.4469800        1.9618790        1.5922070
 H       -3.7867940        0.3204750        2.8894210
 H       -2.8792090       -0.4606110        1.5871570
 H       -4.6348270       -0.1921990        1.4145330
 H       -4.4491920        2.7504990        2.7765200
 H       -5.5109910        2.3100580        1.4264820
 H       -4.3666950        3.6515780        1.2428640
 H       -1.1695380        1.8624450       -3.0365340
