79
M00000216_2D_DFT last geometry from G09 out file
 Ru        0.2992430        0.0137940        0.0742310
 C       -0.8990040       -0.7826850       -1.0332960
 Cl       -0.8123530        0.0012530        2.2172350
 Cl        2.1763090       -0.3361580       -1.4583770
 H       -1.4665080       -0.3526120       -1.8627640
 H       -0.9820950       -1.8836920       -0.8998760
 C        0.0366470        1.9226070       -0.1910390
 N        0.9825060        2.8237070        0.2877370
 N       -0.9753060        2.6575590       -0.7834430
 C        0.7381450        4.2247020       -0.2058090
 C        1.9128510        2.5284260        1.3709070
 C       -0.7583690        4.1567040       -0.6748750
 H        0.8446840        4.9037630        0.6468940
 H       -0.8445390        4.5707780       -1.6866870
 C        1.6782670        3.0695730        2.6584180
 C        3.0519210        1.7191910        1.1757090
 C        2.5602920        2.8035860        3.7197220
 C        3.6992700        1.9754580        3.5454780
 H        2.3392530        3.2297700        4.6991350
 C        3.9181630        1.4420400        2.2542930
 H        4.7824970        0.7993700        2.0752070
 C       -2.1066690        2.1180300       -1.5047130
 C       -2.1997170        2.2823040       -2.9058000
 C       -3.1484860        1.4483680       -0.8237430
 C       -3.3209990        1.7995760       -3.6085040
 C       -4.3798380        1.1316320       -2.9411000
 H       -3.3585450        1.9391290       -4.6895650
 C       -4.2616610        0.9630290       -1.5387550
 H       -5.0508440        0.4435600       -0.9916150
 H       -1.3905280        2.7682990       -3.4501960
 H       -3.0770590        1.2894940        0.2501140
 C        1.7850850        4.7115230       -1.3080810
 C        1.8241570        3.7733890       -2.5461570
 C        1.4207030        6.1552720       -1.7719970
 C        3.2120120        4.7840410       -0.6852160
 H        0.8749150        3.7783970       -3.1007740
 H        2.0528780        2.7377640       -2.2696390
 H        2.6051670        4.1138290       -3.2426950
 H        2.1726690        6.5011520       -2.4964110
 H        1.4190210        6.8662730       -0.9331170
 H        0.4437970        6.2122050       -2.2710210
 H        3.6150860        3.7932190       -0.4575380
 H        3.2234300        5.3776540        0.2421370
 H        3.9005020        5.2657600       -1.3956520
 C       -5.6068310        0.5980510       -3.6924850
 C       -5.2297780       -0.5128380       -4.7128160
 C       -6.4177410        1.7369070       -4.3723030
 H       -6.2698640        0.1342630       -2.9427520
 H       -4.5856660       -0.1251010       -5.5162600
 H       -6.1364700       -0.9262600       -5.1810650
 H       -4.6941550       -1.3384660       -4.2206910
 H       -5.8345540        2.2355560       -5.1610120
 H       -6.7184460        2.5016230       -3.6403720
 H       -7.3302620        1.3321590       -4.8368200
 C       -1.8336820        4.9411110        0.2141590
 C       -2.0438550        4.2997570        1.6128140
 C       -1.3766380        6.4216230        0.4076390
 C       -3.2037780        5.0113450       -0.5320980
 H       -1.1561840        4.4031710        2.2491770
 H       -2.2868450        3.2334520        1.5505920
 H       -2.8731700        4.8043900        2.1307820
 H       -2.1472590        6.9598140        0.9789110
 H       -1.2553730        6.9425400       -0.5521810
 H       -0.4381970        6.5153500        0.9695830
 H       -3.7055280        4.0421590       -0.5910560
 H       -3.0864380        5.3967850       -1.5568700
 H       -3.8765190        5.6986330        0.0027550
 H        0.7924990        3.6725100        2.8439200
 H        3.2609190        1.3016110        0.1951400
 C        4.6527660        1.6491510        4.7019990
 C        3.9468870        0.8278580        5.8179500
 C        5.3355060        2.9197400        5.2808950
 H        5.4539280        1.0115990        4.2914050
 H        3.1482440        1.4078870        6.3042430
 H        4.6704790        0.5350880        6.5947900
 H        3.4940810       -0.0873100        5.4086070
 H        5.8687760        3.4766470        4.4956050
 H        6.0652140        2.6421880        6.0574830
 H        4.6032810        3.6010750        5.7398700
