95
M00000506_2D_DFT last geometry from G09 out file
 Ru        0.4111930       -0.0054090       -0.7777600
 C       -1.1750110       -0.8451340       -0.4075770
 Cl        1.3519400       -0.9510960        1.3091410
 Cl        0.2201010        0.1808610       -3.2121720
 H       -2.0116040       -0.4700360        0.1849510
 H       -1.2524860       -1.9151190       -0.6976620
 C        0.0055010        1.8211930       -0.3045230
 N        1.0291970        2.7070060        0.1008830
 N       -1.1462500        2.5938760       -0.4834330
 C        0.6718760        4.1493680       -0.1661190
 C        2.0705250        2.3868230        1.0652810
 C       -0.8866060        4.0961190       -0.3572170
 H        0.9176880        4.7331350        0.7278980
 H       -1.1465980        4.5314740       -1.3320040
 C        1.8980780        2.8433630        2.3877020
 C        3.2952210        1.7129470        0.7584990
 C        2.8813700        2.6709820        3.3786950
 C        4.1124890        2.0349380        3.0935440
 H        2.6614700        3.0284060        4.3821960
 C        4.2815160        1.5774620        1.7674830
 H        5.1960390        1.0496310        1.5084520
 C       -2.3315210        2.1363660       -1.2049910
 C       -2.3217390        2.3045030       -2.6032880
 C       -3.5191150        1.5960560       -0.6015850
 C       -3.4085030        1.9371850       -3.4179920
 C       -4.5827590        1.3841940       -2.8621350
 H       -3.3055750        2.0672880       -4.4923820
 C       -4.5982120        1.2421170       -1.4542190
 H       -5.4854430        0.8195300       -0.9919180
 H       -1.4206790        2.6811020       -3.0756100
 C       -3.7030360        1.3695120        0.8820470
 C       -5.1242940        1.2325090        1.4487170
 O       -2.7285250        1.2838290        1.6772060
 H       -5.5420240        0.2383050        1.2213160
 H       -5.0635210        1.3262680        2.5392190
 H       -5.8171130        1.9874800        1.0517080
 C        1.5185030        4.7914270       -1.3654330
 C        3.0202880        4.8632470       -0.9532840
 C        1.3938600        3.9888810       -2.6886460
 C        1.0689100        6.2581370       -1.6428680
 H        3.4832810        3.8746210       -0.9037990
 H        3.1537760        5.3519770        0.0244890
 H        3.5794710        5.4509530       -1.6966930
 H        0.3880380        4.0700550       -3.1232770
 H        1.6228890        2.9273680       -2.5609530
 H        2.0937600        4.3981280       -3.4331650
 H        1.6791080        6.6656050       -2.4626620
 H        1.2133670        6.9105000       -0.7706540
 H        0.0202230        6.3299740       -1.9580200
 C       -5.7975180        0.9251020       -3.7141770
 C       -6.0100360       -0.6114080       -3.5186680
 C       -7.0817430        1.6921210       -3.2617140
 C       -5.5888960        1.1918780       -5.2316130
 H       -5.1161480       -1.1730180       -3.8276850
 H       -6.8598850       -0.9580510       -4.1262320
 H       -6.2224250       -0.8686150       -2.4713690
 H       -6.9593690        2.7777190       -3.3941370
 H       -7.3259070        1.5068940       -2.2061850
 H       -7.9462790        1.3710510       -3.8623770
 H       -5.4497150        2.2620700       -5.4459590
 H       -6.4752330        0.8565850       -5.7895590
 H       -4.7229420        0.6431000       -5.6294050
 C       -1.7583580        4.9029900        0.7163780
 C       -1.6191750        4.3546020        2.1640660
 C       -1.3241170        6.4031380        0.7334360
 C       -3.2618140        4.9166740        0.2986610
 H       -1.6882300        3.2643180        2.2036040
 H       -2.4206460        4.7680480        2.7951710
 H       -0.6704050        4.6689760        2.6205370
 H       -1.9291420        6.9334180        1.4837910
 H       -1.4929990        6.8962910       -0.2335400
 H       -0.2728420        6.5420990        1.0127990
 H       -3.8008830        5.6639210        0.9001770
 H       -3.7555400        3.9575310        0.4574370
 H       -3.3873440        5.1916310       -0.7599000
 H        0.9599820        3.3145160        2.6618120
 C        3.5485040        1.0823880       -0.5645650
 C        4.9673480        0.9354390       -1.1025940
 O        2.5969220        0.6283560       -1.2691150
 H        5.4404060        0.0387280       -0.6686440
 H        4.9160810        0.7862630       -2.1876370
 H        5.6018270        1.8006460       -0.8697350
 C        5.2198020        1.7995940        4.1565660
 C        6.5563050        2.4545700        3.6805640
 C        4.8528810        2.4102950        5.5386860
 C        5.4292730        0.2620180        4.3471820
 H        6.4379850        3.5406020        3.5471190
 H        6.9067060        2.0344740        2.7273870
 H        7.3477950        2.2869030        4.4267810
 H        3.9462230        1.9534780        5.9616740
 H        4.6996300        3.4985050        5.4807060
 H        5.6724300        2.2300590        6.2494490
 H        4.4982070       -0.2236440        4.6734850
 H        6.2016670        0.0750800        5.1089680
 H        5.7502570       -0.2284420        3.4177890
