83
M00000505_2D_DFT last geometry from G09 out file
 Ru       -0.1145190       -0.8535600       -0.5410660
 C       -1.2619340       -1.3558030       -1.8575800
 Cl       -1.4219970       -1.2954350        1.4283580
 Cl        1.9090920       -1.0556780       -1.8780250
 H       -1.8380390       -0.7408410       -2.5527320
 H       -1.3475100       -2.4572740       -1.9800260
 C       -0.2408230        1.0762960       -0.4720280
 N        0.5307190        1.8061620        0.4417630
 N       -0.9520870        2.0013190       -1.2336990
 C        0.4792240        3.2639450        0.1986200
 C        1.3070970        1.2931460        1.5575940
 C       -0.6203360        3.4095480       -0.8858680
 H        0.2340040        3.7694000        1.1424140
 H       -0.2666050        3.9269850       -1.7870420
 C        1.0766630        1.7599470        2.8930660
 C        2.3722480        0.4035810        1.3050030
 C        1.9449930        1.2971220        3.9121510
 C        3.0006360        0.3872860        3.6727890
 H        1.7757490        1.6392470        4.9326860
 C        3.1927680       -0.0633700        2.3471150
 H        3.9992160       -0.7601420        2.1139060
 C       -2.0022210        1.7683960       -2.2018550
 C       -1.8749120        2.2139480       -3.5587230
 C       -3.2282570        1.2390810       -1.7421350
 C       -3.0257320        2.1082530       -4.3882160
 C       -4.2548360        1.5784630       -3.9365490
 H       -2.9525060        2.4323100       -5.4251380
 C       -4.3375750        1.1265920       -2.5962420
 H       -5.2690990        0.7078330       -2.2135670
 N       -0.6611430        2.7991290       -4.0339820
 C        0.5437500        1.9315640       -4.1138510
 C       -0.7459970        3.7568370       -5.1546050
 H        1.4501350        2.5530780       -4.1091210
 H        0.5418910        1.3267770       -5.0423580
 H        0.5983890        1.2462350       -3.2685100
 H       -0.8679780        3.2736510       -6.1454440
 H        0.1862630        4.3398810       -5.1856850
 H       -1.5791640        4.4540320       -4.9983060
 H       -3.3037000        0.9223040       -0.7030520
 C        1.8348440        3.8514260       -0.2782080
 F        2.7855950        3.9005280        0.7560830
 F        2.4217680        3.1421530       -1.3464080
 F        1.6636230        5.1870050       -0.7272160
 C       -5.4634700        1.5175100       -4.8620630
 C       -6.3618650        2.7876500       -4.7850670
 H       -5.1315320        1.3848860       -5.9047310
 H       -6.0781900        0.6375140       -4.6119740
 C       -7.5892930        2.7177050       -5.7246170
 H       -6.7022230        2.9282490       -3.7454300
 H       -5.7564950        3.6751920       -5.0356390
 C       -8.4838370        3.9752790       -5.6536470
 H       -8.1917370        1.8273670       -5.4715610
 H       -7.2456950        2.5729520       -6.7642870
 H       -9.3457590        3.8881560       -6.3338410
 H       -7.9238060        4.8807100       -5.9372470
 H       -8.8752540        4.1299310       -4.6355230
 C       -1.8325640        4.2472290       -0.3831370
 F       -2.6536590        3.5772650        0.5448710
 F       -1.3842240        5.4305610        0.2555510
 F       -2.6621050        4.6684090       -1.4392350
 N        0.0189110        2.7004410        3.1766070
 C       -1.3463100        2.1144430        3.2780630
 C        0.2798400        3.7022220        4.2348180
 H       -2.0946730        2.9158540        3.2092570
 H       -1.4893610        1.5806730        4.2388250
 H       -1.5184010        1.3979260        2.4723870
 H        1.2846750        4.1272720        4.1126400
 H        0.1891410        3.3016540        5.2650250
 H       -0.4536560        4.5164360        4.1338210
 H        2.5878870        0.1062150        0.2819930
 C        3.9150390       -0.0657710        4.8035660
 C        5.1580930        0.8523420        4.9965760
 H        3.3514560       -0.0988110        5.7503760
 H        4.2633900       -1.0928170        4.6082140
 C        6.0849010        0.3843230        6.1439250
 H        5.7300790        0.8895000        4.0541690
 H        4.8200230        1.8837710        5.1947010
 C        7.3198710        1.2917890        6.3390710
 H        6.4199250       -0.6486440        5.9430870
 H        5.5089360        0.3446280        7.0855520
 H        7.9547990        0.9270420        7.1619570
 H        7.0225380        2.3253720        6.5784470
 H        7.9387070        1.3248160        5.4281920
