41
Mol_000233_2D_DFT last geometry from G09 out file
 Ru        0.1786890       -0.1967540       -0.0877240
 C        1.7028900       -0.1402880       -1.0846350
 Cl       -1.3019780       -1.2210000       -1.6711520
 Cl        0.7739190       -0.3831100        2.2119430
 H        2.0238960        0.6990140       -1.7118440
 H        2.3020380       -1.0683530       -1.1434430
 C       -0.1681490        1.7000940       -0.2151300
 N        0.7643350        2.7429290       -0.0703500
 N       -1.3788460        2.3174520       -0.5259270
 C        0.2016310        4.0764190       -0.4766050
 C        1.9287480        2.7261310        0.7618130
 C       -1.3142090        3.8129170       -0.5051490
 H        0.6039100        4.3557260       -1.4567730
 H        0.4727220        4.8442340        0.2579160
 H       -1.7811350        4.2250130       -1.4077530
 C        1.7619550        2.8052680        2.1699790
 C        3.2795540        2.7196990        0.3094560
 C        2.8158680        2.8096390        3.0919010
 C        4.1138160        2.7459200        2.5696050
 H        2.6249310        2.8523230        4.1617370
 C        4.3750740        2.7065560        1.1948910
 H        5.3931060        2.6665530        0.8168270
 C       -2.6255080        1.6995040       -0.8398100
 C       -3.0577810        1.6438060       -2.1870700
 C       -3.5228030        1.1588260        0.1195350
 C       -4.2698760        1.0786310       -2.5978020
 C       -5.0792170        0.5212030       -1.5977640
 H       -4.5476490        1.0418370       -3.6486330
 C       -4.7341060        0.5409870       -0.2403230
 H       -5.3818350        0.0981580        0.5119100
 F       -2.2195100        2.1760340       -3.1664090
 N       -3.2465890        1.2561880        1.5845770
 O       -2.7839250        2.3688550        2.0289770
 O       -3.5402500        0.2424310        2.3113170
 H       -1.8363630        4.1842600        0.3863170
 F       -6.2867760       -0.0696330       -1.9710110
 F        0.4692010        2.9287490        2.6656860
 N        3.6258760        2.7409620       -1.1372340
 O        2.8667540        3.4040640       -1.9343100
 O        4.6812910        2.1070590       -1.5060680
 F        5.1925010        2.7423970        3.4543310
