37
M00000046_2D_DFT last geometry from G09 out file
Ru       -0.1745150       -0.1826900        0.1386670
C        1.6237170       -0.4341300        0.2276090
Cl       -0.5201250       -0.8541690       -2.1447250
Cl       -0.9157120       -0.1746280        2.4408960
H        2.4125690        0.2964060        0.0146850
H        1.9583400       -1.4651330        0.4652840
C       -0.2246780        1.7246870       -0.1589210
N        0.7340400        2.7167560        0.0541690
N       -1.3212790        2.3457160       -0.7480740
C        0.3653820        3.9908060       -0.6374390
C        1.9214130        2.6870780        0.8655280
C       -1.1460410        3.8211520       -0.8752150
H        0.9154670        4.0861360       -1.5871480
H        0.6037300        4.8514200       -0.0006980
H       -1.4558130        4.1694190       -1.8678040
C        1.8657340        2.2706590        2.2182490
C        3.1441800        3.1613340        0.3271790
C        3.0317320        2.3059680        3.0093080
C        4.2516980        2.7771970        2.4757970
H        2.9799480        1.9730080        4.0471460
C        4.3006530        3.2088340        1.1324340
H        5.2374470        3.5723970        0.7067280
C       -2.6156630        1.7615920       -1.0171370
C       -3.1404250        1.8106510       -2.3296760
C       -3.3864190        1.2098230        0.0327910
C       -4.4261090        1.3005490       -2.5914990
C       -5.1927350        0.7309160       -1.5498710
H       -4.8198390        1.3274150       -3.6087600
C       -4.6667300        0.6833960       -0.2422030
H       -5.2496620        0.2453740        0.5694800
H       -2.5322340        2.2055630       -3.1433190
H       -2.9936370        1.1891770        1.0473600
H       -1.7561080        4.3377160       -0.1153200
H       -6.1842820        0.3259380       -1.7578890
H        0.9293840        1.9091800        2.6356400
H        3.1990090        3.4748360       -0.7157630
H        5.1480660        2.8098510        3.0968060
