89
M00000043_2D_DFT last geometry from G09 out file
Ru        0.3810390       -0.1711430       -0.2784620
C       -0.9837040       -0.9449450       -1.1961990
Cl       -0.0365810       -1.0905400        1.9016450
Cl        2.0474690        0.0303130       -2.0003550
H       -1.9273600       -0.5123340       -1.5344400
H       -0.8283530       -2.0207240       -1.4242730
C       -0.1607970        1.6967930       -0.0507790
N        0.6860410        2.6015660        0.5881050
N       -1.3179910        2.4014190       -0.3804700
C        0.0558780        3.9226110        0.8309560
C        2.0414770        2.3536770        1.0328980
C       -1.2641320        3.8840030        0.0097430
H        0.7218970        4.7288810        0.5050710
H       -0.1415060        4.0506420        1.9046410
C       -2.4732170        4.4225990        0.8322450
C       -1.2493080        4.8788920       -1.1949370
C       -2.3177660        5.9660520        0.7706650
H       -2.4960100        4.0391310        1.8575590
H       -3.4118670        4.1311930        0.3431920
C       -1.5487110        6.2645810       -0.5612530
H       -3.2980940        6.4623340        0.8046620
H       -1.7466370        6.3351760        1.6358470
H       -0.6187730        6.8155200       -0.3574950
H       -2.1400430        6.8886040       -1.2467240
H       -2.0565990        4.6120410       -1.8878920
H       -0.3052590        4.8568220       -1.7493830
C        3.1585010        2.6514530        0.1869820
C        2.2853370        1.8708360        2.3506490
C        4.4653800        2.3224450        0.5948120
C        4.7146440        1.7159640        1.8471110
H        5.2922590        2.5350900       -0.0775780
C        3.6170440        1.5396310        2.7098800
H        3.7881760        1.1200200        3.7028810
C       -2.4872990        1.8755250       -1.0496460
C       -2.5739390        1.9113110       -2.4812950
C       -3.6068350        1.3770530       -0.3132520
C       -3.7900200        1.5341690       -3.0992360
C       -4.9162010        1.0791630       -2.3821270
H       -3.8461730        1.5993720       -4.1850920
C       -4.7909250        0.9873020       -0.9828730
H       -5.6276040        0.6097850       -0.3966330
C        3.0542630        3.4760270       -1.0786010
F        1.8955200        3.3272200       -1.8589770
F        4.1405120        3.2916320       -1.9571090
F        3.0810970        4.8860460       -0.7461810
C        1.2025450        1.7487580        3.4156000
C        1.2926280        2.8679400        4.4969320
H        1.2970670        0.7742280        3.9146660
H        0.2049870        1.7560700        2.9676190
C        0.1965730        2.7260150        5.5760940
H        1.2127750        3.8591210        4.0188970
H        2.2841790        2.8403080        4.9781820
H        0.2772950        1.7612000        6.1010000
H        0.2775210        3.5263720        6.3283340
H       -0.8113900        2.7775920        5.1350750
C        6.1243300        1.2805680        2.2631410
C        7.1246530        2.4690610        2.3075020
C        6.6509830        0.1275550        1.3622260
H        6.0505640        0.8818160        3.2888280
H        7.2864260        2.9051080        1.3104610
H        8.1015830        2.1278960        2.6827970
H        6.7652620        3.2690640        2.9723020
H        6.7753050        0.4529710        0.3187240
H        5.9585540       -0.7272950        1.3660920
H        7.6295730       -0.2226580        1.7249260
C       -1.4141350        2.3290730       -3.3878110
C       -0.9909420        1.2686700       -4.4464160
H       -0.5334620        2.5799330       -2.7931360
H       -1.7051220        3.2456530       -3.9300620
C        0.1348790        1.7918130       -5.3653690
H       -1.8552330        0.9773350       -5.0654360
H       -0.6411240        0.3618160       -3.9337920
H        1.0332490        2.0442440       -4.7838890
H        0.4215100        1.0252310       -6.1017660
H       -0.1802500        2.6906990       -5.9206760
C       -3.6845780        1.1813390        1.1900330
F       -4.7275010        1.9898880        1.7606810
F       -2.5413500        1.4655990        1.9426990
F       -4.0452600       -0.1530760        1.5152550
C       -6.2245010        0.6783330       -3.0748450
C       -6.0348980       -0.5484020       -4.0108680
C       -6.8736120        1.8723760       -3.8289480
H       -6.9309550        0.3739580       -2.2846010
H       -5.6157140       -1.4057340       -3.4633120
H       -5.3606450       -0.3203830       -4.8498950
H       -7.0029980       -0.8565270       -4.4343070
H       -7.0479290        2.7229850       -3.1530420
H       -7.8436590        1.5714120       -4.2530780
H       -6.2415140        2.2228680       -4.6585970
