77
M00000044_2D_DFT last geometry from G09 out file
Ru       -0.0507900        0.0753540        0.6438640
C       -1.5260930       -0.7020510       -0.0757880
Cl       -0.7798040        0.1793720        2.9447440
Cl        1.5880800       -0.6588430       -0.9726420
H       -2.3372100       -0.2367340       -0.6406950
H       -1.6035870       -1.7973150        0.0957270
C       -0.2061350        1.9476590        0.1287560
N        0.7320640        2.9051910        0.5491370
N       -1.1384490        2.6176040       -0.6709660
C        0.5493700        4.1774690       -0.2234940
C        1.8869620        2.6930070        1.4132760
C        0.8979850        5.5436230        0.3835450
C       -0.9416420        4.1045540       -0.5513760
H        1.1252560        4.0822330       -1.1626920
C        0.5461820        6.6118760       -0.6951740
H        1.9642850        5.6081150        0.6441350
H        0.3209520        5.7225070        1.3025570
C       -0.9041990        6.4873840       -1.2449100
H        1.2597890        6.5208500       -1.5322110
H        0.6893620        7.6187900       -0.2711590
C       -1.2750430        5.0482740       -1.7156950
H       -1.6160120        6.7987750       -0.4608240
H       -1.0375240        7.1896210       -2.0835450
H       -2.3411270        5.0030770       -1.9807280
H       -0.6981790        4.7776030       -2.6129310
H       -1.5216960        4.4452080        0.3264870
C        3.1555300        2.3902610        0.8353800
C        1.7427330        2.9111770        2.8164950
C        4.2699540        2.1773740        1.6970630
C        4.1057270        2.2509650        3.1103570
C        2.8613250        2.6696840        3.6657520
C       -2.3278780        2.1127070       -1.3297400
C       -3.5757420        2.1585080       -0.6407260
C       -2.2339400        1.6765720       -2.6838210
C       -4.7579480        1.7711560       -1.3346800
C       -4.6766750        1.2937440       -2.6760530
C       -3.4219250        1.2568850       -3.3533910
C        3.3487700        2.3209670       -0.6726170
H        2.4013530        2.2482980       -1.2072380
H        3.9312050        1.4390410       -0.9621930
H        3.8893650        3.2114170       -1.0386520
C        0.4364960        3.4192950        3.4094010
H       -0.3454560        3.4998440        2.6529450
H        0.5771820        4.4145550        3.8630950
H        0.0586330        2.7452080        4.1873320
C        5.6358750        1.8592650        1.0961010
H        6.4568690        2.1713420        1.7519860
H        5.7834050        2.3640410        0.1338570
H        5.7535870        0.7771380        0.9114240
C        5.2676960        1.8875320        4.0310030
H        5.8789520        1.0814910        3.6066910
H        4.9167390        1.5412770        5.0093310
H        5.9380630        2.7466770        4.2099460
C        2.7294260        2.8488070        5.1754350
H        1.8760000        3.4776410        5.4457710
H        3.6252990        3.3116320        5.6114090
H        2.5835050        1.8780590        5.6799460
C       -3.6471770        2.5714530        0.8241800
H       -2.6641140        2.5621670        1.2987510
H       -4.2776520        1.8794540        1.3988500
H       -4.0796380        3.5789930        0.9456370
C       -0.8897720        1.6320470       -3.3979950
H       -0.6556060        0.6151670       -3.7451680
H       -0.0744180        1.9359800       -2.7405350
H       -0.8807130        2.2910530       -4.2808590
C       -6.1136870        1.8568210       -0.6397290
H       -6.1095520        2.5815910        0.1812080
H       -6.4150250        0.8847480       -0.2115490
H       -6.9059720        2.1611810       -1.3358450
C       -5.9440500        0.8184460       -3.3807600
H       -6.6178810        0.2948840       -2.6904960
H       -5.7263720        0.1292870       -4.2030540
H       -6.5121240        1.6638930       -3.8071320
C       -3.3591130        0.7709620       -4.7990990
H       -2.3892170        0.9673970       -5.2634030
H       -4.1235940        1.2577720       -5.4223030
H       -3.5325450       -0.3163590       -4.8664110
