83
Mol_000330_2D_DFT last geometry from G09 out file
 Ru        0.3154840        0.2825220       -0.4284040
 C       -1.2562620       -0.5812270       -0.6959270
 Cl        0.6085950       -0.1570340        1.9240780
 Cl        1.0235910        0.3081610       -2.7505900
 H       -2.2659300       -0.1949250       -0.8391390
 H       -1.1385200       -1.6854330       -0.7542520
 C       -0.0240700        2.1930940       -0.3396600
 N        1.0493270        3.0686320       -0.1054950
 N       -1.1520000        2.9545090       -0.6025530
 C        0.6898700        4.5102360       -0.4511760
 C        2.1110760        2.8159080        0.8844110
 C       -0.8740670        4.4591250       -0.6037270
 H        0.9590340        5.1241090        0.4164590
 H       -1.1489350        4.8201280       -1.6024980
 C        1.8081220        3.2244180        2.2114500
 C        3.3934730        2.2571800        0.5927570
 C        2.7377570        3.1496440        3.2524660
 C        4.0159060        2.6457070        2.9464470
 H        2.4894910        3.4555820        4.2655300
 C        4.3320940        2.2018120        1.6557670
 H        5.3313860        1.8157300        1.4723870
 C       -2.3615480        2.4422050       -1.2351340
 C       -2.4393810        2.5517880       -2.6446870
 C       -3.4504240        1.8856910       -0.4887480
 C       -3.5894940        2.1717560       -3.3515390
 C       -4.6746340        1.6689640       -2.6106200
 H       -3.6458010        2.2482470       -4.4344660
 C       -4.6078200        1.5152230       -1.2144330
 H       -5.4693670        1.1000410       -0.7011930
 H       -1.5749370        2.9156050       -3.1941110
 C       -3.4038990        1.6839270        1.0271980
 C       -4.2323910        0.5037130        1.6011870
 H       -3.7586500        2.6052980        1.5178790
 H       -2.3610110        1.5556520        1.3373990
 C       -3.9596920        0.2943710        3.1076110
 H       -3.9920300       -0.4256660        1.0601590
 H       -5.3104080        0.6827720        1.4578130
 H       -4.2038500        1.1970170        3.6909170
 H       -4.5712170       -0.5313350        3.5020010
 H       -2.9028090        0.0472080        3.2897520
 C        1.4976980        5.1051350       -1.6971860
 C        2.9972660        5.2702330       -1.3080650
 C        1.3760640        4.2197350       -2.9667450
 C        0.9892990        6.5341890       -2.0634510
 H        3.5319220        5.7962140       -2.1125690
 H        3.4983920        4.3143180       -1.1558040
 H        3.1122240        5.8689290       -0.3910510
 H        0.3610530        4.2470610       -3.3891740
 H        1.6346830        3.1745600       -2.7796920
 H        2.0517310        4.6006490       -3.7467600
 H        1.5818350        6.9057590       -2.9121550
 H        1.1167390        7.2480370       -1.2393430
 H       -0.0617390        6.5498250       -2.3788520
 N       -5.9237950        1.2734610       -3.3233190
 O       -6.8913020        0.7874250       -2.6278560
 O       -5.9693420        1.4431810       -4.5975110
 C       -1.7361140        5.3314590        0.4249390
 C       -1.6278790        4.8371460        1.8950660
 C       -1.2680330        6.8209270        0.4053130
 C       -3.2307700        5.3625850       -0.0251450
 H       -1.7208620        3.7514170        1.9849510
 H       -2.4260480        5.2937490        2.4984920
 H       -0.6771160        5.1438420        2.3511460
 H       -1.8745400        7.3848940        1.1290830
 H       -1.4103420        7.2905640       -0.5761170
 H       -0.2193750        6.9463120        0.7013620
 H       -3.3261000        5.6630820       -1.0798400
 H       -3.7773490        6.1041440        0.5756640
 H       -3.7435310        4.4065680        0.0974160
 H        0.8092160        3.5832720        2.4316600
 C        3.8660180        1.7370140       -0.7632680
 C        4.3445060        0.2537690       -0.7553660
 H        4.7207550        2.3542380       -1.0906400
 H        3.0853790        1.8478640       -1.5200550
 C        4.9735780       -0.1657810       -2.1009410
 H        3.4937930       -0.4054790       -0.5275260
 H        5.0801040        0.0980700        0.0490990
 H        5.8594710        0.4457580       -2.3385730
 H        5.2953280       -1.2180200       -2.0643640
 H        4.2548340       -0.0646400       -2.9262150
 N        5.0509540        2.5780820        4.0154730
 O        6.2083170        2.1032670        3.7139150
 O        4.7340180        3.0047350        5.1876900
