97
Mol_000381_2D_DFT last geometry from G09 out file
 Ru        0.3226290       -0.0267600       -0.3319180
 C       -1.2365900       -0.8343120       -0.7826200
 Cl        0.3285920       -0.4471080        2.0465940
 Cl        1.2742540       -0.1001840       -2.5745380
 H       -2.1926800       -0.3982770       -1.0761680
 H       -1.1691840       -1.9446980       -0.8039150
 C        0.0140680        1.8962870       -0.3037960
 N        1.0922360        2.7523960       -0.0363520
 N       -1.0985120        2.6666480       -0.5970400
 C        0.7566530        4.1978850       -0.3782360
 C        2.1207130        2.4670790        0.9861460
 C       -0.8024130        4.1645920       -0.5734810
 H        1.0116250        4.8001320        0.5018220
 H       -1.0502550        4.5387830       -1.5742190
 C        1.7816520        2.8265540        2.3125060
 C        3.4118340        1.9110860        0.7389580
 C        2.6756490        2.6841270        3.3832720
 C        3.9738520        2.1623250        3.1726870
 H        2.3378580        2.9642860        4.3781890
 C        4.2918880        1.7926250        1.8460410
 H        5.2782340        1.3804320        1.6412830
 C       -2.3003710        2.1793850       -1.2695340
 C       -2.3477820        2.2958120       -2.6746130
 C       -3.4217050        1.6307110       -0.5730380
 C       -3.4893640        1.9271520       -3.4096270
 C       -4.6365610        1.4210570       -2.7551200
 H       -3.4614250        2.0302270       -4.4916640
 C       -4.5560830        1.2815900       -1.3454170
 H       -5.4119280        0.8701730       -0.8155890
 H       -1.4686600        2.6561670       -3.2056840
 C       -3.4220700        1.4093810        0.9434090
 C       -4.2484990        0.2132380        1.4726250
 H       -3.7988060        2.3205670        1.4378040
 H       -2.3887240        1.2829920        1.2833910
 H       -3.9538430       -0.7307150        0.9921650
 H       -5.3314810        0.3468650        1.3329040
 H       -4.0709960        0.1026740        2.5530660
 C        1.6006160        4.7950660       -1.5999890
 C        3.0825880        4.9773810       -1.1559490
 C        1.5308820        3.8953550       -2.8640210
 C        1.0962690        6.2165040       -1.9994310
 H        3.1558490        5.6139800       -0.2601970
 H        3.6545090        5.4679870       -1.9579580
 H        3.5716670        4.0292410       -0.9346440
 H        0.5268500        3.8990910       -3.3119930
 H        1.8003240        2.8570930       -2.6556410
 H        2.2222450        4.2790170       -3.6293340
 H        1.7182680        6.5855290       -2.8284950
 H        1.1868870        6.9381030       -1.1771400
 H        0.0573510        6.2219370       -2.3537830
 C       -5.9317310        1.0078530       -3.5086410
 C       -7.1318400        1.8642520       -2.9892460
 C       -5.8210230        1.2220750       -5.0447860
 C       -6.2238590       -0.5066690       -3.2550010
 H       -6.9574190        2.9354330       -3.1716090
 H       -7.2985150        1.7300160       -1.9115480
 H       -8.0582470        1.5760330       -3.5094750
 H       -5.0136290        0.6199540       -5.4868630
 H       -5.6468010        2.2776300       -5.3011190
 H       -6.7609200        0.9165940       -5.5274110
 H       -5.3931340       -1.1316270       -3.6155030
 H       -7.1371650       -0.8128500       -3.7878660
 H       -6.3716330       -0.7260480       -2.1885950
 C       -1.6803070        5.0382690        0.4412700
 C       -1.6143910        4.5289180        1.9083860
 C       -1.1955870        6.5224070        0.4461530
 C       -3.1635510        5.0892240       -0.0429190
 H       -0.6639990        4.8035730        2.3848800
 H       -1.7363590        3.4449320        1.9835260
 H       -2.4131380        5.0002780        2.5004300
 H       -1.8125880        7.0885970        1.1598120
 H       -1.3088240        7.0002820       -0.5354840
 H       -0.1522700        6.6323960        0.7667020
 H       -3.2300470        5.4041710       -1.0955880
 H       -3.7189230        5.8260760        0.5567430
 H       -3.6818410        4.1334290        0.0495920
 H        0.7810640        3.1938270        2.5157050
 C        3.9291690        1.4474180       -0.6242680
 C        4.4938920        0.0024900       -0.6521220
 H        4.7378800        2.1273880       -0.9458640
 H        3.1392680        1.5207680       -1.3750050
 H        3.7509560       -0.7268070       -0.3029060
 H        5.3946640       -0.1059490       -0.0304230
 H        4.7638670       -0.2660090       -1.6841110
 C        5.0093190        1.9696570        4.3149450
 C        6.2920220        2.8075780        4.0073350
 C        4.4595610        2.4221240        5.6976460
 C        5.3878780        0.4564510        4.4205280
 H        6.0548870        3.8804530        3.9442220
 H        6.7577570        2.5100550        3.0578180
 H        7.0387930        2.6689070        4.8043690
 H        3.5748400        1.8408320        5.9964580
 H        4.1917020        3.4893870        5.7052230
 H        5.2296550        2.2700230        6.4682100
 H        4.4957790       -0.1583150        4.6108030
 H        6.0983120        0.2976980        5.2466260
 H        5.8582630        0.0852650        3.4995540
