109
M00000535_2D_DFT last geometry from G09 out file
 Ru        0.3678060        1.2979530       -0.3528840
 C       -1.0659680        0.3675650       -0.9587960
 Cl        0.2150920        0.7456370        1.9930960
 Cl        1.4972360        1.3229980       -2.5179180
 H       -2.0123700        0.7198560       -1.3707850
 H       -0.9078060       -0.7335840       -0.9529110
 C       -0.0882410        3.2053740       -0.3344610
 N        0.8310480        4.1292930        0.1809960
 N       -1.1500100        3.8934140       -0.9024430
 C        0.4834280        5.5681140       -0.2227520
 C        1.7771450        3.8286420        1.2865160
 C       -0.9259480        5.4144740       -0.9391600
 H        0.3695370        6.1453460        0.7047550
 H       -0.7942680        5.6756240       -1.9959890
 C        1.3388120        4.0575530        2.6381690
 C        3.1172460        3.3489540        1.0500020
 C        2.2426440        3.8658090        3.7079870
 C        3.5470510        3.4625420        3.4457240
 H        1.9198980        3.9938560        4.7388310
 C        3.9898680        3.1961130        2.1550740
 H        5.0160510        2.8720180        2.0078160
 C       -2.2747280        3.2655420       -1.5980720
 C       -2.3057310        3.2717430       -3.0349380
 C       -3.3673290        2.7061900       -0.8461350
 C       -3.4689310        2.8095140       -3.6942740
 C       -4.5453220        2.3393030       -2.9426070
 H       -3.5395030        2.8103010       -4.7779870
 C       -4.5122000        2.2602970       -1.5509990
 H       -5.3724780        1.8599870       -1.0202540
 C       -1.1404330        3.7748560       -3.8889530
 C       -0.9085450        3.0345550       -5.2335570
 H       -1.3005380        4.8453060       -4.1157360
 H       -0.2177550        3.7035430       -3.3078830
 C        0.3476480        3.5467680       -5.9795920
 H       -0.7969360        1.9567990       -5.0375320
 H       -1.7770310        3.1551030       -5.9015260
 C        0.5808380        2.8315510       -7.3287700
 H        1.2325710        3.4054330       -5.3381880
 H        0.2533470        4.6337290       -6.1571590
 H        1.4813470        3.2182500       -7.8314420
 H       -0.2714270        2.9735920       -8.0130710
 H        0.7186840        1.7485130       -7.1836950
 C       -3.4079160        2.5702000        0.6798500
 C       -3.8292050        1.1803200        1.2386340
 H       -2.4341000        2.8182410        1.1085340
 H       -4.1336600        3.3056870        1.0677720
 C       -3.9386470        1.1840230        2.7830690
 H       -4.7994700        0.8694740        0.8197360
 H       -3.0922180        0.4223730        0.9384140
 C       -4.3377390       -0.1907510        3.3628370
 H       -4.6799990        1.9415760        3.0965840
 H       -2.9706290        1.4874630        3.2135730
 H       -5.3124500       -0.5261680        2.9725760
 H       -4.4131110       -0.1500200        4.4608490
 H       -3.5894620       -0.9577960        3.1089470
 C        1.6342520        6.3041800       -1.0766410
 C        2.8587890        6.5879540       -0.1510580
 C        2.0540700        5.4969150       -2.3374850
 C        1.2040570        7.7099570       -1.5998720
 H        3.3636100        5.6875240        0.1943840
 H        2.5552230        7.1628420        0.7379720
 H        3.5972320        7.1944460       -0.6962730
 H        1.3203710        5.6128500       -3.1460020
 H        2.1715430        4.4313220       -2.1465030
 H        3.0120390        5.8795150       -2.7195690
 H        0.9875620        8.4185450       -0.7913340
 H        0.3441200        7.6702880       -2.2772580
 H        2.0441480        8.1237380       -2.1774420
 F       -5.7060180        1.9097350       -3.6170820
 C       -2.1520660        6.3390400       -0.4449960
 C       -2.6452940        6.0412490        0.9927090
 C       -1.7653960        7.8512120       -0.4484950
 C       -3.3525880        6.2262550       -1.4401330
 H       -1.9343350        6.4074380        1.7396660
 H       -2.8209350        4.9825970        1.1696780
 H       -3.5938880        6.5708740        1.1671430
 H       -2.6234260        8.4208300       -0.0620410
 H       -1.5512240        8.2328230       -1.4533540
 H       -0.9135620        8.0739310        0.2032490
 H       -3.8921650        5.2802370       -1.3612930
 H       -3.0283570        6.3498380       -2.4839200
 H       -4.0716530        7.0311070       -1.2261630
 C       -0.0886810        4.3972110        3.0634470
 C       -0.2342190        5.6744650        3.9438360
 H       -0.7473660        4.4668790        2.1984730
 H       -0.4506540        3.5344720        3.6463730
 C       -1.5594120        5.7168620        4.7450830
 H        0.5992260        5.7357560        4.6593800
 H       -0.1502030        6.5765680        3.3137910
 C       -1.7290300        7.0089530        5.5747100
 H       -1.5926600        4.8440690        5.4205250
 H       -2.4184810        5.6072030        4.0634830
 H       -2.6705560        6.9926150        6.1457980
 H       -1.7455190        7.9018090        4.9289750
 H       -0.9042840        7.1334150        6.2945810
 C        3.7410620        3.0326870       -0.3136210
 C        4.5421600        1.7014710       -0.4042000
 H        2.9788570        3.0088230       -1.0909910
 H        4.4318260        3.8539590       -0.5730440
 C        5.3065640        1.5671770       -1.7437200
 H        5.2722130        1.6205150        0.4153930
 H        3.8510260        0.8522410       -0.2915670
 C        6.0678230        0.2292160       -1.8712460
 H        6.0231560        2.4038070       -1.8375630
 H        4.5978600        1.6610700       -2.5806340
 H        6.6103840        0.1715590       -2.8281900
 H        5.3736650       -0.6250310       -1.8293290
 H        6.8041060        0.1043500       -1.0604700
 F        4.4417310        3.2997900        4.5218690
