53
M00000536_2D_DFT last geometry from G09 out file
 Ru        0.0995800       -0.1303810        0.2285650
 C       -0.9131500       -0.6595450       -1.1864730
 Cl       -1.2583470       -0.5310370        2.1824110
 Cl        2.2526170       -0.2344570       -0.8350610
 H       -1.3601240       -0.0294270       -1.9646860
 H       -1.0256950       -1.7548900       -1.3172430
 C       -0.1598570        1.7810350        0.0967930
 N        0.7813630        2.6899360        0.5744600
 N       -1.1726780        2.5180830       -0.5108870
 C        1.8276800        2.3313380        1.5031640
 C        0.4947130        4.1422300        0.1869680
 C        3.1943920        2.5550880        1.2032130
 C        1.4745240        1.7802660        2.7616680
 C        4.1897350        2.2458080        2.1427710
 C        3.8151630        1.6960160        3.3866190
 H        5.2419810        2.3996780        1.9153510
 C        2.4646880        1.4481110        3.7022430
 H        2.1991120        1.0183660        4.6653110
 C       -0.9177470        3.9872230       -0.4547020
 H       -1.7006210        4.4596860        0.1554250
 H       -0.9555670        4.4273530       -1.4576370
 C       -2.4750560        2.0948290       -0.9427150
 C       -2.9440800        2.5037130       -2.2187320
 C       -3.3331240        1.3621210       -0.0840650
 C       -4.2435240        2.1802360       -2.6400330
 C       -5.0778180        1.4410720       -1.7747480
 H       -4.6092310        2.4792730       -3.6196090
 C       -4.6316910        1.0264560       -0.5020060
 H       -5.2962650        0.4624330        0.1485390
 H       -2.2878710        3.0529080       -2.8926470
 H       -2.9828920        1.0477900        0.8949860
 C        0.4401960        5.0209730        1.4801990
 C        0.0532820        6.5046220        1.2788350
 H       -0.2789600        4.5553020        2.1733370
 H        1.4215330        4.9812890        1.9754890
 H       -0.9135970        6.6245840        0.7670170
 H        0.8103610        7.0608820        0.7093710
 H       -0.0383410        6.9919060        2.2611520
 C        1.5327340        4.7015310       -0.8403190
 C        1.7999400        3.8532310       -2.1031210
 H        1.1644400        5.6913400       -1.1531100
 H        2.4811900        4.8922830       -0.3167270
 H        2.1739180        2.8500040       -1.8652700
 H        2.5525460        4.3553720       -2.7298610
 H        0.8985780        3.7306270       -2.7219770
 N       -6.4559820        1.0983410       -2.2144510
 O       -7.1944080        0.4141310       -1.4127840
 O       -6.8384260        1.5056070       -3.3753220
 H        3.4888550        2.9169480        0.2239380
 H        0.4289130        1.6121640        3.0063740
 N        4.8702920        1.3686410        4.3842380
 O        6.0924860        1.6344520        4.0795190
 O        4.5047410        0.8428580        5.5002290
