85
M00000534_2D_DFT last geometry from G09 out file
 Ru        1.1585330        1.2176260       -0.9450340
 C       -0.1358850        0.1079270       -1.5616330
 Cl        1.5151460        0.2460550        1.2345370
 Cl        1.8751320        2.0166080       -3.1278130
 H       -1.2041600        0.2776780       -1.7011470
 H        0.2534480       -0.8831770       -1.8832420
 C        0.3264600        2.8931390       -0.4127170
 N        1.1372400        3.9285810        0.0777000
 N       -0.9702080        3.3677510       -0.5230660
 C        0.3980460        5.2621640        0.0884890
 C        2.2473860        3.7145580        1.0262530
 C       -1.1004220        4.8409790       -0.1350780
 H        0.5214090        5.6854980        1.0923980
 H       -1.4906150        5.3560260       -1.0218360
 C        1.8676850        3.6400040        2.3921660
 C        3.6303730        3.6357450        0.6800960
 C        2.8011630        3.5419520        3.4334180
 C        4.1610460        3.5149800        3.0843660
 H        2.4788230        3.4740080        4.4707220
 C        4.5672040        3.5489630        1.7476190
 H        5.6291230        3.5160920        1.5136080
 C       -2.0219680        2.7309090       -1.3089240
 C       -2.1689810        3.1608800       -2.6486150
 C       -2.9036950        1.7412570       -0.7705890
 C       -3.2018010        2.6798440       -3.4734260
 C       -4.0921600        1.7437060       -2.9241110
 H       -3.2955160        3.0147900       -4.5047050
 C       -3.9459740        1.2706100       -1.6114180
 H       -4.6427040        0.5255940       -1.2374400
 H       -1.4510200        3.8645890       -3.0635080
 C       -2.7661340        1.1796830        0.6469710
 C       -3.1675910       -0.3054840        0.8522210
 H       -1.7286760        1.3008130        0.9767050
 H       -3.3821180        1.7880050        1.3306910
 C       -2.8343880       -0.8040620        2.2802350
 H       -4.2475600       -0.4438830        0.6771130
 H       -2.6432990       -0.9411470        0.1203590
 C       -3.2419510       -2.2744550        2.5190880
 H       -3.3444010       -0.1612890        3.0203150
 H       -1.7522060       -0.6927870        2.4590220
 H       -2.9884010       -2.5921400        3.5424490
 H       -2.7198060       -2.9498390        1.8227840
 H       -4.3256080       -2.4211240        2.3814960
 C        0.9801800        6.3447770       -0.9354130
 C        2.3862130        6.8083270       -0.4500960
 C        1.0751280        5.8015730       -2.3868040
 C        0.0933190        7.6281720       -0.9635070
 H        2.3547220        7.1678170        0.5903400
 H        2.7378590        7.6418400       -1.0761710
 H        3.1318450        6.0161530       -0.5121890
 H        0.0809410        5.6438620       -2.8296130
 H        1.6234510        4.8582580       -2.4487230
 H        1.5919520        6.5363370       -3.0220880
 H        0.5398290        8.3436680       -1.6695720
 H        0.0443410        8.1225900        0.0154060
 H       -0.9309560        7.4376650       -1.3084830
 Cl       -5.4569640        1.1071140       -3.9434400
 C       -2.1344650        5.1700410        1.0427840
 C       -1.8574050        4.3720050        2.3473250
 C       -2.0793130        6.6865250        1.4106400
 C       -3.5960980        4.9141110        0.5577070
 H       -2.7209900        4.4568670        3.0235000
 H       -0.9929060        4.7784010        2.8890240
 H       -1.6818050        3.3091210        2.1609130
 H       -2.3699230        7.3292110        0.5699810
 H       -1.0923910        7.0059280        1.7671290
 H       -2.7920370        6.8729000        2.2275660
 H       -4.3030830        5.3085830        1.3026430
 H       -3.8263530        3.8566920        0.4174430
 H       -3.7990480        5.4309610       -0.3927070
 H        0.8132020        3.6324170        2.6444580
 C        4.2134420        3.6518990       -0.7324270
 C        5.0799410        2.4077140       -1.0889630
 H        3.4201070        3.7470180       -1.4781400
 H        4.8583620        4.5427170       -0.8308120
 C        5.7909340        2.5541070       -2.4551090
 H        5.8393570        2.2363030       -0.3093300
 H        4.4428250        1.5107960       -1.1045160
 C        6.6238530        1.3105630       -2.8370290
 H        6.4506880        3.4405950       -2.4291580
 H        5.0394250        2.7407500       -3.2381660
 H        5.9846620        0.4170310       -2.9172510
 H        7.4031330        1.1004360       -2.0864320
 H        7.1233350        1.4516680       -3.8085520
 Cl        5.4185220        3.4238610        4.3957120
