77
M00000537_2D_DFT last geometry from G09 out file
 Ru        0.5030910        0.3199120       -0.2860560
 C       -1.0257920       -0.6158890       -0.5618630
 Cl        0.8606180       -0.2795860        2.0239340
 Cl        1.3555090        0.3431370       -2.5519780
 H       -2.0632600       -0.2810650       -0.5664640
 H       -0.8593050       -1.7039980       -0.7146120
 C        0.0593100        2.2273270       -0.2366720
 N        1.0339590        3.1493150        0.1660190
 N       -1.0410100        2.9327430       -0.7107360
 C        0.6569870        4.5932930       -0.1873620
 C        2.0705760        2.8364140        1.1697660
 C       -0.8207400        4.4523560       -0.7491280
 H        0.6393250        5.1656880        0.7485450
 H       -0.8008590        4.7364540       -1.8084010
 C        1.7851940        3.1498430        2.5402620
 C        3.3190300        2.1942190        0.8658230
 C        2.7674170        2.9455740        3.5369870
 C        3.9949100        2.3668880        3.2085640
 H        2.5414740        3.2006470        4.5706320
 C        4.2553870        1.9490870        1.9033040
 H        5.1949600        1.4514750        1.6783010
 C       -2.1927870        2.3090980       -1.3488600
 C       -2.2632710        2.2838090       -2.7776780
 C       -3.2949710        1.7763270       -0.5829340
 C       -3.4100310        1.7471410       -3.4156230
 C       -4.4786380        1.2574870       -2.6593370
 H       -3.4484110        1.7137280       -4.5030860
 C       -4.4323580        1.2678420       -1.2626660
 H       -5.2692380        0.8634190       -0.7027730
 C       -1.1637630        2.7985930       -3.6861180
 H       -0.1722570        2.6317610       -3.2654260
 H       -1.2863970        3.8739590       -3.8917880
 H       -1.1989550        2.2808040       -4.6530170
 C       -3.3343950        1.6708290        0.9310750
 C       -4.6909800        1.5393650        1.6347770
 O       -2.2867310        1.6733270        1.6251730
 H       -5.0860850        0.5148050        1.5414310
 H       -4.5360350        1.7354480        2.7018580
 H       -5.4472860        2.2314310        1.2391170
 C        1.7148040        5.3298990       -1.1469080
 C        3.0590200        5.5205620       -0.3770480
 C        1.9398110        4.5727630       -2.4853400
 C        1.2639700        6.7728130       -1.5324250
 H        2.8949650        5.9819280        0.6100670
 H        3.7114160        6.1959440       -0.9500070
 H        3.6048890        4.5880310       -0.2491030
 H        1.1074060        4.7435680       -3.1822030
 H        2.0776440        3.5009180       -2.3486790
 H        2.8498310        4.9513260       -2.9711760
 H        1.1701420        7.4383440       -0.6644100
 H        0.3266000        6.7931170       -2.0989970
 H        2.0385200        7.1994910       -2.1864580
 Cl       -5.9411020        0.5833390       -3.4970140
 C       -1.9907490        5.3649980       -0.1106770
 C       -2.3465940        5.0486160        1.3675740
 C       -1.6100120        6.8785250       -0.1336800
 C       -3.2802520        5.2648580       -0.9912520
 H       -1.6033630        5.4674110        2.0562460
 H       -2.4271060        3.9838760        1.5728790
 H       -3.3096860        5.5198910        1.6157140
 H       -1.5048700        7.2762040       -1.1498700
 H       -0.6932450        7.0938780        0.4250430
 H       -2.4223240        7.4391900        0.3520960
 H       -3.9752560        6.0672010       -0.7026230
 H       -3.8153200        4.3197720       -0.8756960
 H       -3.0543440        5.4013690       -2.0596200
 C        0.4371120        3.6414340        3.0273150
 H        0.3402160        4.7331020        2.9359650
 H        0.3120710        3.3961400        4.0894940
 H       -0.3820370        3.1671630        2.4856790
 C        3.8865660        1.7614210       -0.4901900
 C        4.4443070        0.3399320       -0.6022230
 O        4.0100720        2.5667660       -1.4419120
 H        4.2680170       -0.0179060       -1.6224030
 H        5.5355510        0.3595840       -0.4437540
 H        3.9986440       -0.3542120        0.1189610
 Cl        5.2441890        2.1043360        4.4996440
