91
Mol_000047_2D_DFT last geometry from G09 out file
 Ru        0.3838400       -0.1276840       -0.1726610
 C       -1.1502520       -0.8841740       -0.7801410
 Cl        0.1042720       -0.7417420        2.1574470
 Cl        1.6316460       -0.3639950       -2.2480800
 H       -2.0876180       -0.4129890       -1.0806210
 H       -1.1076540       -1.9929830       -0.8524490
 C        0.0933390        1.8238220       -0.1721520
 N        1.0663790        2.6766670        0.3483850
 N       -0.9398100        2.5927050       -0.6850880
 C        2.1572430        2.2132530        1.2280850
 C        0.8258920        4.1551710       -0.0683640
 C        3.4375030        1.8475520        0.6989500
 C        1.9273280        2.1738960        2.6418560
 C        4.4736550        1.4394750        1.5947820
 C        4.2349400        1.3645700        2.9947320
 C        2.9745620        1.7693610        3.5170830
 C       -0.7653880        4.1135880       -0.3833200
 C       -2.1236150        2.0633320       -1.3597780
 C       -3.2769810        1.6961270       -0.5955580
 C       -2.1198630        1.9306820       -2.7830330
 C       -4.4731830        1.3302470       -1.2803600
 C       -4.4962910        1.2498690       -2.7026230
 C       -3.3168220        1.5316190       -3.4510950
 C        1.7514540        4.4218720       -1.3206880
 C        1.9055380        5.8397240       -1.9401990
 H        2.7478580        4.1300650       -0.9838060
 H        1.4894190        3.7165510       -2.1187080
 H        1.9545050        6.6389010       -1.1896150
 H        1.1094870        6.0954370       -2.6477560
 H        2.8528200        5.8694610       -2.5027550
 C        1.1767100        5.1819250        1.0568300
 C        2.6587310        5.4713550        1.4080330
 H        0.7303300        6.1352830        0.7432070
 H        0.6628450        4.8932690        1.9764700
 H        3.2328400        5.8616530        0.5585430
 H        3.1835430        4.5947010        1.7971520
 H        2.6814080        6.2446920        2.1934470
 C       -1.1374130        5.0259460       -1.6006000
 C       -2.6221690        5.2743350       -1.9733540
 H       -0.7006170        6.0083910       -1.3781030
 H       -0.6219190        4.6589430       -2.4912400
 H       -3.1940410        5.7499010       -1.1674110
 H       -3.1502160        4.3642030       -2.2682650
 H       -2.6475150        5.9634460       -2.8337860
 C       -1.7249980        4.4630190        0.8194980
 C       -1.9181370        5.9286860        1.3014260
 H       -2.7083940        4.1098880        0.4938470
 H       -1.4618070        3.8529140        1.6876600
 H       -1.9675400        6.6568280        0.4825060
 H       -1.1361780        6.2601410        1.9933080
 H       -2.8740010        5.9923360        1.8463690
 C        3.7538400        1.8416770       -0.7880820
 H        2.8668800        1.9533340       -1.4046990
 H        4.2120320        0.8899740       -1.0828470
 H        4.4674700        2.6399730       -1.0517710
 C        0.5767610        2.5012270        3.2552630
 H        0.6021440        3.4426120        3.8286520
 H        0.2653170        1.7049700        3.9412470
 H       -0.1967310        2.5799390        2.4965840
 C        5.8489760        1.0745930        1.0405060
 H        5.9207790       -0.0030340        0.8109610
 H        6.6492670        1.3119290        1.7516890
 H        6.0758500        1.6124780        0.1139500
 C        5.3091960        0.8175440        3.9313440
 H        5.9691270        0.1074140        3.4210060
 H        4.8666880        0.2839290        4.7806950
 H        5.9461010        1.6195980        4.3442310
 C        2.7302430        1.7445330        5.0230580
 H        3.6523680        1.9170770        5.5903900
 H        2.3193670        0.7719370        5.3454840
 H        2.0140470        2.5129560        5.3357860
 C       -3.2344000        1.5583730        0.9223450
 H       -2.2202410        1.6344510        1.3110860
 H       -3.6125260        0.5701790        1.2209910
 H       -3.8568440        2.3066780        1.4362260
 C       -0.8542580        2.1557400       -3.5965220
 H        0.0107780        2.3228850       -2.9586990
 H       -0.9516770        3.0097110       -4.2855300
 H       -0.6223610        1.2692470       -4.2021400
 C       -5.7331740        0.9946920       -0.4876680
 H       -5.7234280        1.4375340        0.5134160
 H       -5.8552510       -0.0950430       -0.3574670
 H       -6.6358980        1.3595110       -0.9946700
 C       -5.7814710        0.8224010       -3.4053950
 H       -5.6068790        0.4944900       -4.4341420
 H       -6.5119510        1.6490470       -3.4457410
 H       -6.2702400       -0.0090790       -2.8796310
 C       -3.3445810        1.4109200       -4.9732240
 H       -4.2005090        1.9519490       -5.4030470
 H       -3.4326690        0.3590840       -5.2929890
 H       -2.4429050        1.8118370       -5.4422470
