103
Mol_000087_2D_DFT last geometry from G09 out file
 Ru        0.5394980       -0.4453760       -0.5110980
 C       -0.9353810       -1.2944460       -1.1471810
 Cl        0.4188030       -1.0654490        1.8180590
 Cl        1.8995340       -0.6084960       -2.5113490
 H       -1.8861570       -0.8534700       -1.4574150
 H       -0.8418970       -2.3975050       -1.2427310
 C        0.0153460        1.4524960       -0.4650100
 N        0.9474840        2.4287090       -0.1189690
 N       -1.1831500        2.1063050       -0.7676710
 C        0.4296750        3.7936420       -0.3774830
 C        2.2852370        2.2166460        0.4014590
 C       -1.1030430        3.6061480       -0.4610690
 H        0.8390620        4.1786600       -1.3254650
 H        0.7217350        4.4733730        0.4256030
 C       -1.8228370        4.0140550        0.8635600
 C       -1.7638140        4.5702260       -1.4819970
 C       -1.9540280        5.5612350        0.7886740
 H       -1.2783500        3.6663080        1.7486430
 H       -2.8198410        3.5597970        0.8731820
 C       -1.8345130        5.9263850       -0.7311100
 H       -2.9137350        5.8928080        1.2120370
 H       -1.1650930        6.0602870        1.3712970
 H       -0.9253610        6.5200880       -0.9138100
 H       -2.6836830        6.5322610       -1.0801130
 H       -2.7773020        4.2160700       -1.7065750
 H       -1.2157780        4.6266690       -2.4290620
 C        3.4030270        2.1070910       -0.4839870
 C        2.5290980        2.1826660        1.8163640
 C        4.6608030        1.7318000        0.0293360
 C        4.8784630        1.4962980        1.4167740
 H        5.4760740        1.6150040       -0.6803640
 C        3.7983460        1.8038460        2.2958070
 H        3.9455310        1.7689220        3.3709890
 C       -2.4549310        1.5173330       -1.1452680
 C       -2.9160820        1.5923880       -2.5147330
 C       -3.3233040        0.9464320       -0.1583410
 C       -4.2168990        1.1325910       -2.8348240
 C       -5.0963160        0.5890270       -1.8594630
 H       -4.5228950        1.1629800       -3.8738170
 C       -4.6065690        0.4893380       -0.5284490
 H       -5.2280340        0.0449300        0.2411030
 C        3.3217700        2.4549150       -1.9680430
 C        3.8845910        3.8717830       -2.2887070
 H        3.8892220        1.7138410       -2.5481270
 H        2.2897590        2.3876590       -2.3258430
 C        3.7816260        4.2272520       -3.7918920
 H        3.3464660        4.6318690       -1.6966590
 H        4.9398040        3.9296370       -1.9734590
 C        4.3340310        5.6294510       -4.1324810
 H        2.7257440        4.1641560       -4.1100450
 H        4.3236850        3.4676460       -4.3819940
 H        4.2443140        5.8424770       -5.2097130
 H        5.3989520        5.7155480       -3.8625470
 H        3.7881850        6.4176480       -3.5887990
 N        1.5077450        2.6279530        2.7580410
 C        1.2620110        1.7665640        3.9379470
 C        1.6791210        4.0473060        3.1565630
 H        1.1739620        0.7255300        3.6198720
 H        0.3084870        2.0672520        4.4003810
 H        2.0474450        1.8440810        4.7217150
 H        1.8693280        4.6775110        2.2795090
 H        2.5258840        4.2001790        3.8618510
 H        0.7613130        4.4030310        3.6509140
 N        6.1082550        1.0343500        1.9024080
 C        7.2208310        0.7768480        0.9784910
 C        6.2950600        0.7928490        3.3389350
 H        8.0791190        0.3868480        1.5379880
 H        7.5493080        1.6941810        0.4577160
 H        6.9499880        0.0287540        0.2136640
 H        5.5327120        0.1005030        3.7342940
 H        6.2496850        1.7258810        3.9303240
 H        7.2779430        0.3382920        3.5097520
 N       -2.1246920        2.1617680       -3.5586320
 C       -0.8323770        1.5512990       -3.9257800
 C       -2.8020190        2.7827210       -4.7061110
 H       -0.1403730        2.3201510       -4.3064500
 H       -0.9559720        0.7859120       -4.7195890
 H       -0.3666100        1.0616330       -3.0746680
 H       -3.6692240        3.3681430       -4.3738960
 H       -3.1419520        2.0576010       -5.4762890
 H       -2.0957020        3.4684250       -5.2005050
 C       -2.8921950        0.7323760        1.2968290
 C       -3.9193290        1.1410190        2.3882360
 H       -2.6647610       -0.3376320        1.4289300
 H       -1.9477290        1.2454940        1.4921230
 C       -3.3639050        0.9493720        3.8210820
 H       -4.2194590        2.1936450        2.2509600
 H       -4.8409540        0.5439390        2.2935240
 C       -4.3812200        1.3137280        4.9250570
 H       -2.4545670        1.5619570        3.9452670
 H       -3.0436160       -0.0989700        3.9491810
 H       -3.9498010        1.1650630        5.9278440
 H       -5.2870480        0.6894310        4.8564150
 H       -4.6960360        2.3673720        4.8489050
 N       -6.3831480        0.1459190       -2.2038020
 C       -6.8515120        0.2276990       -3.5925850
 C       -7.2340620       -0.5087680       -1.2010130
 H       -7.8971910       -0.0975220       -3.6464280
 H       -6.2636470       -0.4142780       -4.2747980
 H       -6.8065450        1.2615520       -3.9751140
 H       -8.1894000       -0.7907030       -1.6591660
 H       -7.4558880        0.1612320       -0.3525290
 H       -6.7710340       -1.4271480       -0.7971850
