71
Mol_000088_2D_DFT last geometry from G09 out file
 Ru        0.1127280        0.1053720       -0.1410880
 C       -1.2292150       -0.6051110       -1.1352900
 Cl       -0.7512530       -0.2418150        2.0883780
 Cl        1.8501900       -0.0496040       -1.8208380
 H       -2.0178300       -0.1044770       -1.7003750
 H       -1.2126060       -1.7156540       -1.1877850
 C       -0.2353730        2.0200750       -0.0892400
 N        0.6396220        2.8724820        0.5827590
 N       -1.3081230        2.7934090       -0.5249870
 C        0.2211460        4.2923640        0.4517700
 C        2.0093830        2.6144840        1.0078230
 C       -1.2748410        4.1972380        0.0696930
 H        0.8172650        4.7828920       -0.3371150
 H        0.3831240        4.8301030        1.3902630
 C       -2.2159160        4.3807670        1.3047310
 C       -1.7380530        5.3504430       -0.8578100
 C       -2.3196450        5.9198960        1.4957560
 H       -1.8453230        3.8537380        2.1935900
 H       -3.2047610        3.9708970        1.0643020
 C       -1.9667330        6.5485940        0.1031160
 H       -3.3280560        6.2049530        1.8285830
 H       -1.6217320        6.2748320        2.2684340
 H       -1.0578260        7.1645520        0.1786100
 H       -2.7656540        7.2072420       -0.2667950
 H       -2.6859160        5.0689310       -1.3353820
 H       -1.0139010        5.5729890       -1.6517960
 C        3.0040000        2.5510110        0.0016850
 C        2.3810990        2.5765770        2.3857780
 C        4.3614400        2.4126930        0.3307220
 C        4.7647150        2.3520360        1.6858880
 H        5.1023290        2.3455400       -0.4674820
 C        3.7628290        2.4434400        2.6778230
 H        4.0702940        2.4061310        3.7230370
 C       -2.4967700        2.3125710       -1.2014720
 C       -2.6500710        2.4136970       -2.6177660
 C       -3.5347230        1.7513610       -0.4154470
 C       -3.8751150        1.9568410       -3.1720780
 C       -4.9275170        1.4169610       -2.3992170
 H       -4.0101040        2.0174480       -4.2522320
 C       -4.7322850        1.3092310       -0.9998790
 H       -5.5077340        0.8695090       -0.3700870
 H        2.7027720        2.5874620       -1.0424970
 C        1.3729910        2.7086880        3.5387170
 C        1.4935030        4.0939130        4.2424890
 C        1.5001870        1.5648500        4.5825670
 H        0.3661220        2.6301430        3.1089800
 H        2.4659140        4.2018750        4.7460420
 H        0.7074120        4.2014300        5.0063150
 H        1.3962260        4.9303750        3.5341230
 H        0.6916610        1.6470180        5.3254340
 H        2.4554270        1.6061660        5.1267850
 H        1.4127910        0.5832400        4.1015990
 C        6.2259430        2.1667440        2.0605340
 H        6.4997780        1.0981160        2.0498530
 H        6.4410520        2.5494030        3.0683460
 H        6.8937180        2.6784920        1.3519910
 C       -1.5440580        2.9332340       -3.5526340
 C       -2.0217090        4.0984760       -4.4648490
 C       -0.9354820        1.7868250       -4.4130950
 H       -0.7306820        3.3181030       -2.9230970
 H       -2.4578230        4.9232310       -3.8840340
 H       -2.7759820        3.7668640       -5.1934780
 H       -1.1697200        4.4984710       -5.0360240
 H       -0.5005590        0.9993150       -3.7861890
 H       -0.1298860        2.1839850       -5.0499210
 H       -1.6903240        1.3318840       -5.0724430
 H       -3.3716820        1.6220390        0.6529310
 C       -6.2298130        0.9711870       -3.0437700
 H       -6.1098070        0.7859370       -4.1202210
 H       -7.0115640        1.7409460       -2.9276470
 H       -6.6139910        0.0495530       -2.5819900
