79
Mol_000354_2D_DFT last geometry from G09 out file
 Ru        0.3878380       -1.1052930       -0.0369980
 C       -1.0394450       -1.9333280       -0.7985050
 Cl       -0.0680480       -1.6352050        2.2643470
 Cl        1.8717060       -1.2120120       -1.9357540
 H       -1.9502260       -1.5041330       -1.2190380
 H       -0.9421040       -3.0389030       -0.8454110
 C       -0.0436370        0.7790640       -0.0844520
 N        0.8367110        1.7295450        0.4713370
 N       -1.1250000        1.4809900       -0.6301380
 C        0.3838670        3.1223080        0.2476630
 C        1.8927370        1.4472510        1.4575090
 C       -0.9910320        2.9521600       -0.4642010
 H        0.2907810        3.6525590        1.2032520
 H       -1.0038340        3.4442050       -1.4447150
 C        1.5520940        1.4696520        2.8494390
 C        3.2377270        1.2179580        1.0416200
 C        2.5670280        1.2072730        3.7921860
 C        3.9012800        0.9323700        3.4152130
 H        2.3012600        1.1995000        4.8504970
 C        4.2054370        0.9460230        2.0405280
 H        5.2302310        0.7493270        1.7192110
 C       -2.1787820        0.9738180       -1.5090790
 C       -1.9814290        1.0195520       -2.9238990
 C       -3.3989070        0.4899520       -0.9530060
 C       -3.0419510        0.6019710       -3.7593330
 C       -4.2776030        0.1452650       -3.2460220
 H       -2.8913330        0.6266100       -4.8399330
 C       -4.4219130        0.0852740       -1.8435450
 H       -5.3550140       -0.2914290       -1.4199140
 C       -0.6791300        1.4736400       -3.5639500
 H        0.1971980        1.0237160       -3.0848270
 H       -0.5553910        2.5679140       -3.5308020
 H       -0.6581460        1.1872080       -4.6230930
 C       -3.6552610        0.3521490        0.5397730
 H       -2.7394710        0.3683870        1.1344890
 H       -4.1693980       -0.5969350        0.7489320
 H       -4.3095870        1.1592490        0.9020970
 C        1.3492810        4.0047450       -0.5963930
 F        2.5513940        4.2723420        0.0766450
 F        1.6729970        3.4550700       -1.8527920
 F        0.7537390        5.2638390       -0.8596410
 C       -5.4169120       -0.2537140       -4.1743460
 C       -6.3186510        0.9466230       -4.5886020
 H       -5.0100100       -0.7184540       -5.0873310
 H       -6.0467630       -1.0144950       -3.6855050
 C       -7.4836000        0.5348860       -5.5207310
 H       -6.7252990        1.4241490       -3.6811920
 H       -5.6993490        1.7091630       -5.0902310
 C       -8.3751450        1.7242310       -5.9415400
 H       -8.1041550       -0.2253200       -5.0143130
 H       -7.0741880        0.0487650       -6.4238760
 H       -9.1911850        1.3940080       -6.6033890
 H       -7.7931070        2.4872570       -6.4827020
 H       -8.8312030        2.2113830       -5.0648890
 C       -2.1374180        3.6488740        0.3265590
 F       -3.3591490        3.6233440       -0.3671820
 F       -2.3679440        3.1092190        1.6070520
 F       -1.8244470        5.0159300        0.5250030
 C        0.1548070        1.7719440        3.3639120
 H       -0.6209920        1.2526760        2.7949990
 H       -0.0671280        2.8515020        3.3425500
 H        0.0586990        1.4499420        4.4081120
 C        3.7317860        1.2950120       -0.3926080
 H        2.9319220        1.3124600       -1.1311890
 H        4.3674470        0.4306440       -0.6259240
 H        4.3442620        2.2005480       -0.5251140
 C        4.9741200        0.6650620        4.4621870
 C        5.6125140        1.9637950        5.0377020
 H        4.5430250        0.0865930        5.2958030
 H        5.7723820        0.0433590        4.0261180
 C        6.6979380        1.6840650        6.1043750
 H        6.0511930        2.5484240        4.2113640
 H        4.8204790        2.5934080        5.4772170
 C        7.3302380        2.9695360        6.6831010
 H        7.4907430        1.0553840        5.6618170
 H        6.2574190        1.0925050        6.9263530
 H        8.0979980        2.7302560        7.4357780
 H        6.5715950        3.6040010        7.1687140
 H        7.8109130        3.5686870        5.8932520
