99
Mol_000278_2D_DFT last geometry from G09 out file
 Ru        0.0698130       -0.0666290        0.4163510
 C       -1.4617440       -0.8385810       -0.1793250
 Cl       -0.3225630       -0.1104880        2.8022350
 Cl        1.4918090       -0.9729420       -1.3342550
 H       -2.2479710       -0.4075860       -0.8031510
 H       -1.5749150       -1.9128730        0.0808070
 C       -0.1370430        1.8632480        0.0171390
 N        0.8200990        2.7768620        0.4499060
 N       -1.1104170        2.5758060       -0.6733910
 C        0.4524500        4.2224130        0.1319010
 C        1.9731400        2.4422260        1.2572510
 C       -0.7042760        4.0423860       -0.8915190
 H        0.0555770        4.6346750        1.0642070
 H       -0.3115780        4.0763590       -1.9128580
 C        2.0608460        2.8457900        2.6442860
 C        3.1169850        1.7757670        0.6954380
 C        3.1678860        2.4211340        3.4188270
 C        4.2251320        1.6302540        2.8985370
 H        3.1668440        2.6811690        4.4709230
 C        4.1933160        1.3552520        1.5064980
 H        5.0116680        0.8415660        1.0211330
 C       -2.3121610        2.0914310       -1.3077410
 C       -2.4386130        2.0907600       -2.7476940
 C       -3.4718720        1.7289940       -0.5529240
 C       -3.6880290        1.7834880       -3.3429360
 C       -4.8408570        1.4368590       -2.5884150
 H       -3.7381170        1.7739400       -4.4255660
 C       -4.6904900        1.3839770       -1.1751640
 H       -5.5153950        1.0895200       -0.5377180
 N       -1.3448740        2.4488790       -3.5905940
 C       -0.1443410        1.5799570       -3.6006100
 C       -1.6295120        3.0327670       -4.9117600
 H       -0.2648290        0.7477430       -4.3234530
 H        0.0387560        1.1453080       -2.6215920
 H        0.7440300        2.1614620       -3.8809820
 H       -2.4380210        3.7723570       -4.8432610
 H       -1.9010150        2.2833680       -5.6855610
 H       -0.7231340        3.5473740       -5.2653880
 C       -3.5031800        1.7442840        0.9527690
 O       -4.2188630        0.6474840        1.4468160
 O       -3.0244710        2.6179280        1.7040670
 C       -4.3354560        0.5475500        2.9222550
 H       -3.3377320        0.4684030        3.3693480
 H       -4.8605320        1.4247790        3.3262130
 H       -4.9143790       -0.3676460        3.0882470
 C        1.6833830        5.1239030       -0.2689140
 C        1.6326370        6.4901270        0.4700580
 C        1.9399750        5.3445270       -1.7808400
 H        2.5659140        4.5979730        0.1240960
 H        1.5307430        6.3532100        1.5557640
 H        0.7980050        7.1176780        0.1247620
 H        2.5618130        7.0523390        0.2875620
 H        2.0082320        4.3956960       -2.3204390
 H        2.9019800        5.8666120       -1.9073950
 H        1.1687530        5.9721240       -2.2472160
 N       -6.0622990        1.1365860       -3.2047430
 C       -6.1834230        1.1676410       -4.6677860
 C       -7.2107850        0.7001030       -2.3974350
 H       -5.9170530        2.1573740       -5.0764400
 H       -7.2212370        0.9613840       -4.9538440
 H       -5.5427880        0.4115130       -5.1575200
 H       -7.5149690        1.4715690       -1.6694670
 H       -6.9974440       -0.2294200       -1.8406780
 H       -8.0669440        0.5074370       -3.0541460
 C       -1.9121550        5.0515770       -0.8328300
 C       -1.7614500        6.1843390       -1.8858330
 C       -2.2587230        5.6548380        0.5508550
 H       -2.7891790        4.4671280       -1.1468590
 H       -1.5650630        5.7825080       -2.8906190
 H       -0.9501270        6.8808130       -1.6328980
 H       -2.6917920        6.7714840       -1.9359210
 H       -1.5004140        6.3742760        0.8909860
 H       -2.3850580        4.8776920        1.3095720
 H       -3.2112460        6.2035330        0.4752000
 N        1.1288690        3.7433610        3.2567510
 C       -0.2823660        3.3559930        3.4736250
 C        1.6258420        4.6283560        4.3253180
 H       -0.4029840        2.7929030        4.4188120
 H       -0.6507390        2.7237260        2.6732650
 H       -0.9074670        4.2597320        3.5271120
 H        2.6217560        5.0161650        4.0753610
 H        1.6755500        4.1453090        5.3242820
 H        0.9363210        5.4822090        4.4150640
 C        3.3224900        1.6506810       -0.7937200
 O        4.4355290        0.8575120       -1.1004970
 O        2.6785470        2.2372130       -1.6891490
 C        4.7220710        0.6650760       -2.5346600
 H        5.6013470        0.0111800       -2.5546550
 H        3.8660890        0.1855680       -3.0252810
 H        4.9380480        1.6276470       -3.0204610
 N        5.2635420        1.1604610        3.7114380
 C        5.2805780        1.4683470        5.1468190
 C        6.2993270        0.2807210        3.1500760
 H        5.3125570        2.5563310        5.3322740
 H        6.1745950        1.0296430        5.6047630
 H        4.3979350        1.0579910        5.6697690
 H        5.8603230       -0.6147240        2.6781500
 H        6.9669790       -0.0557240        3.9518300
 H        6.9158990        0.7973800        2.3935850
