59
Mol_000277_2D_DFT last geometry from G09 out file
 Ru        0.3731960        0.0949930       -0.1853000
 C       -1.1338380       -0.7586530       -0.7294750
 Cl        0.2622570       -0.3812920        2.1763840
 Cl        1.5926990        0.2112080       -2.2780170
 H       -2.1307970       -0.3536180       -0.9158930
 H       -1.0108270       -1.8558480       -0.8615760
 C       -0.1232690        1.9728630       -0.0650540
 N        0.7556830        2.8792970        0.5187710
 N       -1.2403920        2.6920360       -0.4739790
 C        0.3111320        4.2816360        0.3213870
 C        2.1036970        2.6327240        0.9993010
 C       -1.1985820        4.1421230       -0.0012090
 H        0.8707010        4.7327590       -0.5160410
 H        0.4961470        4.8790700        1.2200870
 C       -2.1005140        4.4285350        1.2423260
 C       -1.7049990        5.2031620       -1.0161410
 C       -2.1926890        5.9764800        1.3075460
 H       -1.7049480        3.9740780        2.1602590
 H       -3.0987840        4.0097690        1.0644700
 C       -1.9723640        6.4755780       -0.1623230
 H       -3.1643640        6.2972310        1.7097410
 H       -1.4233400        6.3925500        1.9750320
 H       -1.1167340        7.1657010       -0.2104240
 H       -2.8448870        7.0260780       -0.5424290
 H       -2.6417270        4.8517840       -1.4696450
 H       -0.9891510        5.3845910       -1.8282530
 C        3.1319430        2.3927770        0.0600100
 C        2.4114820        2.7308950        2.3888260
 C        4.4628880        2.2101120        0.4802920
 C        4.8001160        2.2830110        1.8513460
 H        5.2343310        2.0090530       -0.2646970
 C        3.7602850        2.5515870        2.7749680
 H        4.0042160        2.6103450        3.8377380
 C       -2.4227390        2.1631070       -1.1217560
 C       -2.5202060        2.0954850       -2.5445830
 C       -3.5116610        1.7411360       -0.3232570
 C       -3.7325300        1.6155260       -3.0985770
 C       -4.8365260        1.2041130       -2.3125160
 H       -3.8120380        1.5558340       -4.1860870
 C       -4.7032390        1.2684850       -0.9055030
 H       -5.5211540        0.9404340       -0.2621840
 H        2.8867380        2.3337950       -0.9977030
 C        1.3564810        3.0057940        3.4457080
 H        1.0183670        4.0552200        3.4260390
 H        1.7554720        2.8130680        4.4502260
 H        0.4791270        2.3640570        3.3026350
 C        6.2243970        2.0518920        2.3281810
 H        6.4818190        2.7056830        3.1747060
 H        6.9542720        2.2300790        1.5261010
 H        6.3587890        1.0112770        2.6687370
 C       -1.3735710        2.4673170       -3.4669760
 H       -0.5641260        1.7270520       -3.4053690
 H       -0.9314500        3.4379890       -3.2106190
 H       -1.7119720        2.5134300       -4.5107030
 H       -3.4056740        1.7450670        0.7607130
 C       -6.1175480        0.7144240       -2.9676590
 H       -6.7894940        0.2395240       -2.2399670
 H       -5.9084410       -0.0173920       -3.7627860
 H       -6.6690600        1.5481900       -3.4333280
