97
Mol_000276_2D_DFT last geometry from G09 out file
 Ru        0.1130140        0.2095470        0.1313510
 C       -1.1675590       -0.6490430       -0.8258190
 Cl       -0.8609630        0.0307740        2.3372800
 Cl        1.8326550       -0.0710280       -1.6043550
 H       -1.9094760       -0.2642770       -1.5277200
 H       -1.1422650       -1.7545640       -0.6973170
 C       -0.1855460        2.1308450       -0.0894680
 N        0.6562560        3.0296530        0.5611580
 N       -1.0804000        2.8557980       -0.8555350
 C        0.5091090        4.4410480        0.0395390
 C        1.6187740        2.6137190        1.5845120
 C       -0.8537740        4.3605500       -0.7596660
 H        0.3948970        5.1069470        0.9003530
 H       -0.6920340        4.7215010       -1.7820970
 C        1.5205240        2.9996110        2.9567800
 C        2.6908060        1.7792870        1.1801630
 C        2.5315800        2.5370270        3.8366770
 C        3.5939540        1.6904930        3.4512040
 H        2.4681160        2.8290080        4.8855080
 C        3.6491760        1.3077360        2.0913610
 H        4.4396580        0.6532660        1.7234240
 C       -2.1867690        2.2744540       -1.6018610
 C       -2.2136560        2.2026330       -3.0246980
 C       -3.2889410        1.7767380       -0.8595390
 C       -3.3927810        1.6904320       -3.6305220
 C       -4.5121090        1.2267260       -2.9067550
 H       -3.4299860        1.6392540       -4.7193330
 C       -4.4292600        1.2605540       -1.4914720
 H       -5.2480390        0.8865500       -0.8763860
 C       -1.0291560        2.5998330       -3.9182390
 C       -1.3692000        3.7752490       -4.8786630
 C       -0.4763360        1.3821530       -4.7146800
 H       -0.2166140        2.9260850       -3.2615570
 H       -1.7358760        4.6578120       -4.3343030
 H       -2.1414290        3.4917110       -5.6086840
 H       -0.4729370        4.0728680       -5.4447800
 H       -1.2205510        0.9793150       -5.4177020
 H       -0.1623680        0.5774860       -4.0381960
 H        0.4050340        1.6874430       -5.2997620
 H       -3.2325720        1.7726540        0.2262550
 C        1.7796150        4.9942810       -0.7746620
 C        2.2363600        4.0446690       -1.9145370
 C        1.4594250        6.3852580       -1.4054620
 C        2.9747820        5.2337100        0.2009200
 H        1.5070180        4.0069990       -2.7331350
 H        2.4090310        3.0212870       -1.5709840
 H        3.1791370        4.4160850       -2.3436290
 H        2.3525320        6.7418730       -1.9396440
 H        1.2102740        7.1380920       -0.6457070
 H        0.6425640        6.3498490       -2.1382530
 H        3.3808130        4.3059580        0.6113050
 H        2.6866660        5.8822590        1.0418470
 H        3.7887700        5.7404350       -0.3392480
 C       -5.7507500        0.6935620       -3.6390390
 C       -7.0156010        1.5468170       -3.3407370
 C       -6.0035000       -0.8111730       -3.3417610
 H       -5.5521290        0.7788700       -4.7209360
 H       -7.8712500        1.1832210       -3.9307570
 H       -6.8503870        2.6045150       -3.5959290
 H       -7.2966790        1.4963710       -2.2781180
 H       -6.8543820       -1.1813510       -3.9345240
 H       -6.2362920       -0.9816630       -2.2800280
 H       -5.1219690       -1.4191100       -3.5952620
 C       -2.0799180        5.2326280       -0.1938080
 C       -2.6302570        4.7267940        1.1684380
 C       -1.6378240        6.7182360       -0.0011300
 C       -3.2415960        5.2814160       -1.2382050
 H       -1.9626920        4.9876340        1.9977050
 H       -2.7836970        3.6442740        1.1868400
 H       -3.5993660        5.2051130        1.3751190
 H       -1.3356020        7.1859890       -0.9472300
 H       -0.8191620        6.8357610        0.7194950
 H       -2.4931360        7.2897760        0.3888090
 H       -3.7710050        4.3314810       -1.3373050
 H       -2.8763950        5.5746650       -2.2337430
 H       -3.9768260        6.0374880       -0.9239710
 C        0.3853860        3.8574150        3.5354030
 C        0.8814040        5.2625270        3.9873830
 C       -0.3633740        3.1487350        4.6997490
 H       -0.3521080        3.9978350        2.7408480
 H        1.5970610        5.1844200        4.8189780
 H        0.0337410        5.8730560        4.3365730
 H        1.3816650        5.8067040        3.1733970
 H        0.2763400        3.0247410        5.5857480
 H       -0.7176100        2.1582530        4.3910310
 H       -1.2347840        3.7500930        5.0044520
 H        2.7845690        1.5025330        0.1347370
 C        4.6128670        1.1968880        4.4859930
 C        6.0734960        1.5708860        4.1114370
 C        4.4688190       -0.3309370        4.7410140
 H        4.3837050        1.7049150        5.4384170
 H        6.7638930        1.2674880        4.9139160
 H        6.1805430        2.6560640        3.9618620
 H        6.3971910        1.0692980        3.1873010
 H        4.7028670       -0.9138230        3.8376240
 H        3.4432870       -0.5855640        5.0471620
 H        5.1560060       -0.6542470        5.5386810
