91
M00000243_2D_DFT last geometry from G09 out file
 Ru        0.2328040        0.0698170       -0.6419710
 C       -1.3193000       -0.7379840       -0.1058190
 Cl        1.3401490       -0.8542630        1.3797780
 Cl       -0.1605570        0.1354600       -3.0467320
 H       -2.0463530       -0.3672700        0.6181070
 H       -1.4625500       -1.7921380       -0.4262620
 C       -0.0969720        1.9264060       -0.1879260
 N        0.9454870        2.7905570        0.2120790
 N       -1.2207080        2.7394640       -0.3980100
 C        0.6313970        4.2543360       -0.0346580
 C        2.0560990        2.4251810        1.0615320
 C       -0.9192290        4.2381010       -0.3074220
 H        0.8285790        4.8030030        0.8926690
 H       -1.1004070        4.6441090       -1.3090480
 C        2.0517270        2.8125240        2.4223710
 C        3.2479280        1.7564600        0.6425470
 C        3.1046490        2.6117400        3.3193870
 C        4.2861820        1.9744170        2.8821780
 H        2.9719170        2.9412920        4.3485340
 C        4.3286490        1.5605620        1.5356730
 H        5.2081010        1.0400440        1.1634070
 C       -2.4261620        2.2850470       -1.0583070
 C       -2.5667670        2.4938860       -2.4516140
 C       -3.5657360        1.6969430       -0.4152630
 C       -3.6571730        2.0800720       -3.2197730
 C       -4.7408750        1.4298900       -2.5934380
 H       -3.6248380        2.2554180       -4.2934200
 C       -4.6772460        1.2781310       -1.1927060
 H       -5.5164760        0.8246690       -0.6718780
 F       -1.5517410        3.1777630       -3.1365060
 C       -3.6727930        1.5288370        1.0737820
 O       -5.0176860        1.5646890        1.4816780
 O       -2.7442120        1.3830260        1.8952400
 C       -5.2634640        1.3676530        2.9284340
 H       -6.3526030        1.4227810        3.0313720
 H       -4.8843570        0.3892130        3.2542200
 H       -4.7721620        2.1577140        3.5121620
 C        1.5636850        4.9130990       -1.1664120
 C        3.0089300        5.0944700       -0.6028360
 C        1.6175380        4.0747130       -2.4731720
 C        1.0747780        6.3439880       -1.5493790
 H        3.0046300        5.6211160        0.3648000
 H        3.6017850        5.7013890       -1.3034590
 H        3.5386140        4.1474950       -0.4711610
 H        2.3687900        4.5086640       -3.1509930
 H        0.6586780        4.0755790       -3.0020270
 H        1.8865720        3.0316600       -2.2930440
 H        1.7426890        6.7418030       -2.3278300
 H        1.1091450        7.0402710       -0.7016250
 H        0.0604280        6.3514770       -1.9669530
 C       -5.9423900        0.9063220       -3.3870660
 C       -5.5317740       -0.2497340       -4.3426410
 C       -6.6848340        2.0375920       -4.1506340
 H       -6.6544150        0.4869500       -2.6566400
 H       -5.0392350       -1.0646820       -3.7919390
 H       -4.8344770        0.0956920       -5.1202490
 H       -6.4200240       -0.6626370       -4.8450690
 H       -6.0496270        2.4906370       -4.9264880
 H       -7.0057070        2.8370790       -3.4658780
 H       -7.5806120        1.6352210       -4.6479550
 C       -1.8470590        5.0993420        0.6766540
 C       -1.8553610        4.5990420        2.1475170
 C       -1.3670070        6.5852390        0.6983620
 C       -3.3093120        5.1487740        0.1265600
 H       -2.7097620        5.0462360        2.6794560
 H       -0.9477660        4.9027050        2.6804160
 H       -1.9341100        3.5131580        2.2219940
 H       -2.0107090        7.1462320        1.3920700
 H       -1.4442790        7.0667150       -0.2853820
 H       -0.3374180        6.6932310        1.0601670
 H       -3.8581780        4.2159800        0.2717340
 H       -3.3343760        5.3967080       -0.9459650
 H       -3.8678700        5.9348030        0.6564870
 F        0.9105280        3.4482400        2.9392650
 C        3.3524300        1.1538970       -0.7085840
 O        4.6405160        1.1477200       -1.2128410
 O        2.3965620        0.6576960       -1.3554740
 C        4.8391000        0.4621070       -2.5169630
 H        5.9061200        0.5854610       -2.7287720
 H        4.5688570       -0.5987070       -2.4292110
 H        4.2201940        0.9325970       -3.2915420
 C        5.4605150        1.7005010        3.8272720
 C        5.0761550        0.6699370        4.9267450
 C        6.0402890        3.0024850        4.4451670
 H        6.2615440        1.2440470        3.2220920
 H        4.2975880        1.0646670        5.5966660
 H        5.9552970        0.4227870        5.5415610
 H        4.6947140       -0.2605560        4.4817190
 H        5.3088120        3.5071410        5.0941690
 H        6.3462500        3.7134940        3.6629030
 H        6.9241680        2.7706010        5.0589090
