107
M00000242_2D_DFT last geometry from G09 out file
 Ru       -0.2908020        0.4653590       -0.3012040
 C       -1.9394180       -0.1735130       -0.7021910
 Cl       -0.3376700        0.1467460        2.0970300
 Cl        0.6054200        0.0845080       -2.5474590
 H       -2.8224910        0.3564120       -1.0617770
 H       -2.0229670       -1.2797820       -0.6128750
 C       -0.3488600        2.4200620       -0.4403780
 N        0.8022540        3.1533940       -0.1277420
 N       -1.3178960        3.2752000       -0.9422120
 C        0.7022620        4.5978650       -0.6267120
 C        1.7845650        2.7608490        0.9135810
 C       -0.7959510        4.7068030       -1.1344460
 H        0.8486590        5.2514810        0.2435960
 H       -0.7728680        4.8759520       -2.2176180
 C        1.5478860        3.1937550        2.2606200
 C        2.9909990        2.0256930        0.6489910
 C        2.5061820        2.9793000        3.2669680
 C        3.7412920        2.3268490        3.0107000
 H        2.2581480        3.3092780        4.2728150
 C        3.9298310        1.8469570        1.6889980
 H        4.8405880        1.3100490        1.4461970
 C       -2.6088490        2.8512980       -1.4877710
 C       -2.7768300        2.7374700       -2.9040560
 C       -3.7330390        2.5878130       -0.6345570
 C       -4.0452020        2.4432250       -3.4431490
 C       -5.1949510        2.2553270       -2.6255150
 H       -4.1217620        2.3542580       -4.5237330
 C       -4.9890650        2.3148550       -1.2185310
 H       -5.8245940        2.1366650       -0.5496410
 C       -1.6334790        2.9039760       -3.8924780
 H       -1.8638710        2.3803390       -4.8297400
 H       -0.6989840        2.4878850       -3.5100520
 H       -1.4672320        3.9624920       -4.1513920
 C       -3.6674240        2.5955250        0.8983210
 C       -4.3274420        1.3947040        1.6336080
 H       -2.6254930        2.6446120        1.2242410
 H       -4.1645700        3.5119110        1.2617550
 C       -4.2173120        1.5218890        3.1728630
 H       -5.3930740        1.3105700        1.3651760
 H       -3.8437080        0.4585040        1.3197210
 C       -4.8616370        0.3373510        3.9263240
 H       -4.6947110        2.4643860        3.4982980
 H       -3.1538930        1.5895220        3.4531520
 H       -4.7689700        0.4634010        5.0167730
 H       -4.3718540       -0.6121120        3.6585100
 H       -5.9344470        0.2432480        3.6898790
 C        1.8441930        4.9980900       -1.6896180
 C        3.2150330        5.1005190       -0.9507550
 C        1.9287730        4.0043510       -2.8822700
 C        1.6247840        6.4077870       -2.3217400
 H        3.1571430        5.8109600       -0.1108600
 H        3.9810810        5.4753770       -1.6465040
 H        3.5635770        4.1486100       -0.5535170
 H        1.1153290        4.1723110       -3.6001800
 H        1.8868880        2.9609770       -2.5723920
 H        2.8730050        4.1592000       -3.4256100
 H        1.6637620        7.2163800       -1.5817670
 H        0.6851980        6.4851580       -2.8808870
 H        2.4386610        6.5853190       -3.0409310
 N       -6.4590220        2.0056660       -3.1765040
 C       -6.6238890        1.8953400       -4.6322380
 C       -7.6141670        1.7579060       -2.3037550
 H       -6.3009530        2.8152240       -5.1489370
 H       -7.6821630        1.7363270       -4.8698560
 H       -6.0527800        1.0487450       -5.0545570
 H       -7.4800070        0.8561670       -1.6790490
 H       -8.5107390        1.6086870       -2.9165820
 H       -7.8086590        2.6115780       -1.6319640
 C       -1.7209310        5.9000580       -0.5653320
 C       -2.0649380        5.8034030        0.9445070
 C       -1.0312110        7.2880560       -0.7498600
 C       -3.0456750        5.9879990       -1.3908900
 H       -2.8562370        6.5310530        1.1808440
 H       -1.2016230        6.0544870        1.5710480
 H       -2.4233300        4.8180180        1.2346060
 H       -0.8813140        7.5499210       -1.8037020
 H       -0.0689600        7.3558790       -0.2294960
 H       -1.6880570        8.0559470       -0.3144400
 H       -2.8476870        5.9951520       -2.4732540
 H       -3.5607280        6.9297240       -1.1465130
 H       -3.7373230        5.1694740       -1.1816270
 C        0.2674770        3.8732780        2.7101840
 H        0.0212330        3.5657290        3.7351390
 H       -0.5809730        3.6133390        2.0797630
 H        0.3730690        4.9691890        2.7174820
 C        3.4012940        1.4336390       -0.7055990
 C        3.8439860       -0.0583610       -0.6852250
 H        2.5903110        1.5234830       -1.4275590
 H        4.2456190        2.0252970       -1.1020250
 C        4.4338450       -0.5182360       -2.0403960
 H        4.5974800       -0.2339050        0.0982470
 H        2.9787430       -0.6896730       -0.4315030
 C        4.8333050       -2.0105390       -2.0515270
 H        5.3207330        0.0979440       -2.2780180
 H        3.6981110       -0.3353980       -2.8384180
 H        3.9580930       -2.6531250       -1.8654450
 H        5.5848430       -2.2335070       -1.2760910
 H        5.2597390       -2.3010880       -3.0250940
 N        4.7088420        2.1514790        4.0098610
 C        5.9226190        1.3705610        3.7366320
 C        4.4398200        2.5921720        5.3849150
 H        5.6944830        0.3237070        3.4649880
 H        6.5565410        1.3544540        4.6310770
 H        6.5151910        1.8135260        2.9181850
 H        4.2051620        3.6690590        5.4243170
 H        5.3300960        2.4263400        6.0031510
 H        3.5990340        2.0423530        5.8469540
