89
Mol_000104_2D_DFT last geometry from G09 out file
Ru        0.1663300        0.1137440        0.0237410
C        1.9802260        0.0233830        0.0013680
Cl       -0.2115970       -0.3232310       -2.3142160
Cl       -0.2539780       -0.5052750        2.3251070
H        2.7120330        0.8332470       -0.0324070
H        2.3876710       -1.0097180       -0.0124470
C       -0.2033930        2.0248290        0.1645510
N        0.6288970        3.0663000        0.5434750
N       -1.4850270        2.5728620       -0.0580740
C       -0.0707410        4.3754730        0.6052390
C        2.0312010        3.0753740        0.9252570
C       -1.5149680        4.0868490        0.1210470
H        0.4404370        5.1075630       -0.0327930
H       -0.0431640        4.7524760        1.6336570
H       -1.6518530        4.5246510       -0.8755320
C        2.3913550        2.9419620        2.3045910
C        3.0179830        3.3363500       -0.0775600
C        3.7609130        3.0237800        2.6413510
C        4.7621040        3.2492110        1.6681030
H        4.0440830        2.9064660        3.6829420
C        4.3697070        3.4075690        0.3205150
H        5.1481350        3.5797240       -0.4216910
C       -2.5298840        1.9056540       -0.8475840
C       -2.6385730        2.2040010       -2.2523210
C       -3.4454550        0.9986650       -0.2262870
C       -3.6863270        1.6146870       -2.9813610
C       -4.5918380        0.6999100       -2.3975290
H       -3.8024020        1.8225030       -4.0411860
C       -4.4392330        0.3925460       -1.0319160
H       -5.1062160       -0.3267480       -0.5622220
C       -1.6489800        3.1142900       -2.9892500
C       -1.4000860        2.7877050       -4.4810790
H       -0.6828860        3.0788060       -2.4729900
H       -2.0028850        4.1601980       -2.9303020
H       -2.2857810        2.9673290       -5.1065210
H       -1.0894560        1.7429290       -4.6092540
H       -0.5957100        3.4330650       -4.8676510
C       -3.4116170        0.6110870        1.2518140
C       -4.7478450        0.7981080        2.0275770
H       -2.6192230        1.1539440        1.7714930
H       -3.1314710       -0.4514860        1.3268840
C       -4.6353270        0.3454160        3.5009920
H       -5.5528070        0.2225820        1.5435450
H       -5.0617550        1.8533440        1.9923420
H       -4.3564360       -0.7175340        3.5712520
H       -3.8705200        0.9218790        4.0443380
H       -5.5939410        0.4785300        4.0266800
C       -2.6322850        4.7672570        1.0159780
C       -4.0445180        4.5773050        0.3886530
C       -2.6408300        4.2771690        2.4883300
C       -2.3330180        6.3036200        0.9911640
H       -4.3804270        3.5380000        0.4157560
H       -4.0677570        4.9106590       -0.6597920
H       -4.7789770        5.1809570        0.9426340
H       -1.7005560        4.5011000        3.0113480
H       -2.8150080        3.1992610        2.5573490
H       -3.4449300        4.7835280        3.0428030
H       -1.3796810        6.5618460        1.4731100
H       -3.1252530        6.8406480        1.5326130
H       -2.3135260        6.6956710       -0.0379920
C       -5.6672390        0.0908130       -3.2634980
C       -6.5561990       -1.0135930       -2.6915940
O       -5.8325470        0.4848530       -4.4523060
H       -7.1441980       -0.6483950       -1.8347710
H       -7.2445810       -1.3561950       -3.4721950
H       -5.9548890       -1.8664580       -2.3409180
C        1.3347850        2.7631680        3.3972030
C        1.7848120        2.0376940        4.6850750
H        0.4801780        2.2177400        2.9855640
H        0.9616870        3.7651610        3.6805010
H        2.1917650        1.0422610        4.4585010
H        0.9150370        1.8952320        5.3435570
H        2.5356040        2.6041380        5.2564580
C        2.6935920        3.5176940       -1.5588840
C        2.9516420        4.9589020       -2.0905240
H        1.6566550        3.2339910       -1.7677550
H        3.3232460        2.8255620       -2.1428080
C        2.6856730        5.0918770       -3.6059120
H        3.9939930        5.2462230       -1.8796090
H        2.3196230        5.6770420       -1.5410910
H        1.6418200        4.8472730       -3.8574150
H        2.8816990        6.1193370       -3.9496970
H        3.3341940        4.4157470       -4.1849920
C        6.2322150        3.3321740        2.0086440
C        6.6831980        3.1205440        3.4532250
O        7.0833520        3.5737370        1.1074700
H        6.3784140        2.1303700        3.8259120
H        7.7749580        3.1995970        3.5000830
H        6.2421790        3.8753910        4.1230360
