115
M00000134_2D_DFT last geometry from G09 out file
Ru       -0.3025350        0.5330700       -0.9295290
C       -1.8842090        0.0226880       -1.6549470
Cl       -0.5180030       -0.5254930        1.2329220
Cl        0.7799830        0.8769750       -3.0951510
H       -2.7565300        0.6201310       -1.9234100
H       -1.9250380       -1.0596070       -1.9101160
C       -0.4284550        2.4336690       -0.4576860
N        0.6474250        3.0513850        0.1925250
N       -1.3709000        3.3937590       -0.7914750
C        0.5410890        4.5795620        0.1418060
C        1.5496290        2.3535610        1.1486270
C       -0.8892860        4.8248560       -0.5039060
H        0.5500760        4.9391150        1.1796270
H       -0.7384170        5.2962160       -1.4824550
C        1.1874730        2.3287710        2.5385340
C        2.7837530        1.7321370        0.7440550
C        2.0679930        1.7411150        3.4744270
C        3.3051740        1.1826330        3.1122640
H        1.7569770        1.6947830        4.5189670
C        3.6293320        1.1946040        1.7454700
H        4.5816490        0.7657900        1.4373480
C       -2.6070770        3.1347810       -1.5353930
C       -2.6806650        3.4763400       -2.9280090
C       -3.7609770        2.6041200       -0.8660860
C       -3.9278420        3.3749410       -3.5842240
C       -5.0981940        2.9345800       -2.9313990
H       -3.9915220        3.6477710       -4.6362670
C       -4.9803990        2.5378300       -1.5859930
H       -5.8665120        2.1687240       -1.0703700
C       -1.4664640        3.9627100       -3.7242440
C       -1.3902090        3.5037260       -5.2055580
H       -1.4482710        5.0687500       -3.7123520
H       -0.5545080        3.6218160       -3.2278700
C       -0.0839490        3.9609270       -5.8996090
H       -1.4539480        2.4051050       -5.2451880
H       -2.2422760        3.8990390       -5.7823590
C       -0.0015700        3.5254210       -7.3795000
H        0.7794840        3.5481370       -5.3533880
H       -0.0011430        5.0617430       -5.8405850
H       -0.8342660        3.9422910       -7.9694530
H       -0.0406750        2.4284780       -7.4710890
H        0.9388420        3.8655800       -7.8414640
C       -3.7890870        2.1167830        0.5877820
C       -4.4022240        0.7073040        0.8321210
H       -2.7807720        2.1145830        1.0092020
H       -4.3882080        2.8327970        1.1772550
C       -4.4983720        0.3672440        2.3395010
H       -5.4096950        0.6397840        0.3915180
H       -3.7835080       -0.0542320        0.3374840
C       -5.0848830       -1.0365060        2.6064950
H       -5.1212240        1.1260280        2.8478270
H       -3.4935130        0.4272900        2.7879990
H       -5.1460230       -1.2417260        3.6870380
H       -4.4549640       -1.8183730        2.1541120
H       -6.1002240       -1.1358420        2.1887610
C        1.7800290        5.2962920       -0.5975660
C        3.0571330        5.1571060        0.2888260
C        2.0241680        4.7415920       -2.0294870
C        1.5848200        6.8349880       -0.7684180
H        2.8797710        5.5578180        1.2993550
H        3.8774210        5.7403580       -0.1560000
H        3.4021520        4.1304390        0.3972320
H        1.9596430        3.6560000       -2.0856250
H        3.0247650        5.0396630       -2.3763350
H        1.3020450        5.1565520       -2.7450430
H        2.4688990        7.2290210       -1.2918770
H        1.5124610        7.3649440        0.1891070
H        0.7138700        7.0901790       -1.3819960
C       -6.4291840        2.8808680       -3.6634040
H       -7.2130840        2.4177130       -3.0488850
H       -6.3501300        2.3039660       -4.5983620
H       -6.7742930        3.8913360       -3.9377970
C       -1.9276330        5.7986520        0.2559420
C       -2.4508870        5.2523540        1.6072420
C       -1.2821960        7.1809120        0.5860730
C       -3.1398320        6.1281230       -0.6746330
H       -1.6776960        5.2993770        2.3798420
H       -2.8110530        4.2288370        1.5374930
H       -3.2875840        5.8787190        1.9518880
H       -1.0191230        7.7522970       -0.3113960
H       -0.3945270        7.0945700        1.2224590
H       -2.0212940        7.7754390        1.1434090
H       -2.8084310        6.4490760       -1.6732650
H       -3.7110010        6.9612310       -0.2375550
H       -3.8280330        5.2895870       -0.7987920
C       -0.1469810        2.8005400        3.1160650
C       -0.0401690        3.8693770        4.2452200
H       -0.8108600        3.1588580        2.3295050
H       -0.6378970        1.9072090        3.5361690
C       -1.3074530        3.9534410        5.1323690
H        0.8182780        3.6423680        4.8949400
H        0.1738700        4.8595540        3.8071780
C       -1.2238210        5.0518910        6.2156390
H       -1.4643850        2.9744820        5.6185080
H       -2.1975200        4.1277500        4.5062070
H       -0.3629940        4.8896340        6.8841550
H       -2.1322130        5.0657800        6.8384690
H       -1.1121270        6.0516540        5.7655560
C        3.3262620        1.6395460       -0.6872810
C        3.8524320        0.2414810       -1.1253090
H        2.5705850        1.9441850       -1.4098340
H        4.1633290        2.3534630       -0.7852910
C        4.5775920        0.2875350       -2.4921740
H        4.5495550       -0.1698220       -0.3795780
H        3.0083090       -0.4622820       -1.1845550
C        5.0621420       -1.1006320       -2.9660510
H        5.4441720        0.9704640       -2.4200500
H        3.9015950        0.7121090       -3.2501140
H        5.5843430       -1.0303800       -3.9336370
H        4.2133710       -1.7909960       -3.0942020
H        5.7582110       -1.5544560       -2.2414920
C        4.2235190        0.5473000        4.1418580
H        3.9469930       -0.5065550        4.3152300
H        4.1658630        1.0625130        5.1119250
H        5.2723580        0.5590200        3.8124480
