49
M00000132_2D_DFT last geometry from G09 out file
Ru        0.6095970       -0.2819720       -0.8160660
C        2.3423330       -0.4263300       -0.2908700
Cl        0.8790000        0.3093530       -3.1490610
Cl       -0.4576370       -1.5473170        0.9342070
H        2.9541950        0.2779810        0.2780590
H        2.8271220       -1.3850200       -0.5761290
C        0.0838880        1.4913810       -0.2375920
N        0.8152770        2.5938640        0.1867710
N       -1.2505310        1.8898450       -0.2930020
C       -0.0634100        3.7515280        0.5406780
C        2.2023510        2.6739300        0.5921140
C       -1.4126420        3.3567870       -0.0851590
H        0.3421110        4.6829350        0.1272740
H       -0.1243930        3.8549100        1.6366900
H       -1.5864420        3.8540480       -1.0541080
C        2.5190080        2.3307990        1.9304470
C        3.2034600        3.1666730       -0.2926190
C        3.8353940        2.4544750        2.4117290
C        4.8450520        2.9288050        1.5452990
H        4.0705770        2.1767630        3.4400500
C        4.5246810        3.2734140        0.2182650
H        5.3152800        3.6279120       -0.4458400
C       -2.3868620        1.1184430       -0.7671700
C       -2.5277970        0.9096300       -2.1607920
C       -3.3769070        0.6532930        0.1468120
C       -3.6374510        0.2087340       -2.6697540
C       -4.6204630       -0.2724470       -1.7802050
H       -3.7254730        0.0381300       -3.7434880
C       -4.4833880       -0.0468440       -0.3969270
H       -5.2419830       -0.4380280        0.2834760
H       -1.7579120        1.2771120       -2.8354620
C       -3.2852210        0.8463100        1.6572030
C       -4.3665860        1.7928010        2.2452570
H       -2.2878840        1.2115650        1.9290250
H       -3.3823880       -0.1398940        2.1375400
H       -5.3823900        1.4177090        2.0522550
H       -4.3036800        2.8054210        1.8174540
H       -4.2438750        1.8781260        3.3364220
H       -2.2640490        3.5687690        0.5714350
H       -5.4817540       -0.8254380       -2.1591040
H        1.7311640        1.9440110        2.5780800
C        2.9223840        3.5638600       -1.7376640
C        2.9526180        5.0973780       -1.9828250
H        1.9574610        3.1600400       -2.0618720
H        3.6807040        3.0947750       -2.3852350
H        2.1894680        5.6212390       -1.3870980
H        2.7573360        5.3125650       -3.0446730
H        3.9300450        5.5319940       -1.7252850
H        5.8730120        3.0221810        1.8996580
