85
Mol_000203_2D_DFT last geometry from G09 out file
 Ru        0.2691640       -0.1669560       -0.1953520
 C       -0.7923200       -0.9210680       -1.4615180
 Cl       -0.8364840       -0.7060540        1.8952690
 Cl        2.2420160       -0.0203800       -1.6031030
 H       -1.4367920       -0.4269980       -2.1947680
 H       -0.7031290       -2.0253720       -1.5502970
 C       -0.2947760        1.7002720       -0.1838530
 N        0.5371170        2.6589540        0.3717110
 N       -1.4566490        2.3315460       -0.5998880
 C        1.7420470        2.3426900        1.1165900
 C        0.0484400        4.0804400        0.0969050
 C        3.0295500        2.4915730        0.5498890
 C        1.6331050        1.9029750        2.4577170
 C        4.1772030        2.2109670        1.3137790
 C        4.0838440        1.7629980        2.6554270
 H        5.1592140        2.3202860        0.8493760
 C        2.7890940        1.6134430        3.2093920
 H        2.6765290        1.2631070        4.2372970
 C       -1.5305380        3.7802770       -0.0453620
 C       -2.5869180        1.6587360       -1.2081050
 C       -3.3660840        0.7317400       -0.4737590
 C       -2.9259960        1.9056630       -2.5591180
 C       -4.4618750        0.0859440       -1.0770540
 C       -4.8237880        0.3383340       -2.4244200
 H       -5.0410610       -0.6271320       -0.4867600
 C       -4.0317740        1.2612020       -3.1509660
 H       -4.2720580        1.4747230       -4.1946290
 C       -5.9926690       -0.3887610       -3.0782810
 C       -5.5892460       -1.7461790       -3.7182980
 H       -6.4399660        0.2499160       -3.8568200
 H       -6.7804560       -0.5723880       -2.3300660
 H       -4.8312710       -1.6061530       -4.5036740
 H       -6.4657040       -2.2335480       -4.1733370
 H       -5.1710340       -2.4315670       -2.9659630
 C        0.7495650        4.6280520       -1.2035790
 C        0.7932800        3.7897560       -2.5067380
 H        1.7946690        4.8197920       -0.9281580
 H        0.3226320        5.6182430       -1.4254490
 C        1.6580400        4.4787310       -3.5888220
 H       -0.2125430        3.6278280       -2.9148570
 H        1.2063340        2.7936950       -2.3045560
 H        2.6972710        4.6142120       -3.2480050
 H        1.6891730        3.8698520       -4.5055790
 H        1.2628810        5.4722580       -3.8580410
 C        0.3494360        5.0506220        1.3008530
 C        1.7138520        5.7851890        1.3999720
 H        0.2019260        4.4927920        2.2344850
 H       -0.4190340        5.8346890        1.2884380
 C        1.8142520        6.5885140        2.7181340
 H        1.8369030        6.4830770        0.5572150
 H        2.5506000        5.0774660        1.3538560
 H        1.7574940        5.9260120        3.5961870
 H        2.7704350        7.1319940        2.7720380
 H        1.0036070        7.3306570        2.8039180
 C       -2.2897570        4.7225740       -1.0272880
 C       -2.4623240        6.2109940       -0.6184790
 H       -3.2940820        4.3051370       -1.1774940
 H       -1.8049000        4.6980110       -2.0092840
 C       -3.3448170        6.9763360       -1.6320780
 H       -1.4864250        6.7145640       -0.5575340
 H       -2.9183230        6.2920620        0.3790300
 H       -4.3541040        6.5395940       -1.6957460
 H       -3.4549050        8.0321310       -1.3392290
 H       -2.9074060        6.9543800       -2.6430310
 C       -2.2444580        3.7203250        1.3646860
 C       -3.7916200        3.6035430        1.4278090
 H       -1.9892040        4.6269280        1.9260220
 H       -1.8075840        2.8804210        1.9237600
 C       -4.2786870        3.4412360        2.8872820
 H       -4.1558360        2.7558860        0.8389410
 H       -4.2604400        4.5037730        1.0017240
 H       -3.8821850        2.5191930        3.3409610
 H       -3.9598320        4.2876810        3.5173700
 H       -5.3779530        3.3892890        2.9303470
 H        3.1344720        2.7847450       -0.4907740
 H        0.6491090        1.7678520        2.9014040
 C        5.3301210        1.4027830        3.4542620
 C        5.7442190       -0.0863540        3.2910170
 H        5.1599820        1.6072800        4.5236880
 H        6.1721510        2.0404480        3.1399540
 H        4.9436030       -0.7599990        3.6310670
 H        6.6481610       -0.3025540        3.8819560
 H        5.9570800       -0.3258820        2.2386000
 H       -3.0970040        0.4990780        0.5534580
 H       -2.3204580        2.5850870       -3.1548750
