55
M00000148_2D_DFT last geometry from G09 out file
Ru       -0.2630150        0.0327190        0.7385810
C       -1.5502150       -0.6199820       -0.3692680
Cl       -1.4048260        0.3429410        2.8388410
Cl        1.6561520       -0.7235260       -0.4925280
H       -2.0509380       -0.1076150       -1.1972850
H       -1.8111060       -1.6879340       -0.2196940
C       -0.2616130        1.8758550        0.2240880
N        0.8375860        2.7200410        0.5374370
N       -1.1854440        2.6654900       -0.4389840
C        1.9902400        2.3591190        1.3504250
C        0.6600860        4.0516850        0.0506920
C        3.2656100        2.2327780        0.7589950
C        1.8365820        2.1896570        2.7423760
C        4.3777950        1.9281060        1.5623750
C        4.2502110        1.7327990        2.9624130
H        5.3518800        1.8273570        1.0835030
C        2.9603410        1.8679210        3.5303740
H        2.8257080        1.7273360        4.6042450
C       -0.7066830        4.0569830       -0.6362380
H       -1.3843950        4.7755500       -0.1579390
H       -0.6029280        4.3054220       -1.6997500
C       -2.5581100        2.3778020       -0.7912230
C       -2.9518870        2.4175410       -2.1490170
C       -3.5246320        2.1424360        0.2105020
C       -4.3003370        2.2143950       -2.4982520
C       -5.2887080        1.9636920       -1.5106870
H       -4.5763520        2.2451600       -3.5526200
C       -4.8687740        1.9293210       -0.1576360
H       -5.6019090        1.7371060        0.6277720
H       -2.2070560        2.5868900       -2.9280290
H       -3.2262310        2.1036940        1.2561700
F        0.7453780        5.0358960        1.0990520
F        1.7088190        4.4569410       -0.8582910
C       -6.7606720        1.7325510       -1.8769940
C       -6.9530580        0.4458120       -2.7283830
C       -7.3932150        2.9704910       -2.5725080
H       -7.3094210        1.5783240       -0.9328280
H       -6.4565950        0.5277700       -3.7069520
H       -8.0235830        0.2653470       -2.9108090
H       -6.5423760       -0.4359260       -2.2140000
H       -8.4660710        2.8005380       -2.7513190
H       -6.9217770        3.1763980       -3.5452020
H       -7.2907860        3.8719490       -1.9499030
H        3.3799950        2.3517160       -0.3162160
H        0.8583550        2.3040420        3.2045720
C        5.4552590        1.3777370        3.8429320
C        6.5431270        2.4877400        3.8250760
C        6.0539440       -0.0084660        3.4714950
H        5.0886290        1.3024370        4.8805950
H        6.9863670        2.6065440        2.8250940
H        7.3565300        2.2362690        4.5233110
H        6.1238500        3.4597830        4.1253940
H        6.4726500       -0.0098850        2.4540950
H        5.2878890       -0.7966630        3.5197220
H        6.8637310       -0.2744880        4.1686260
