103
M00000150_2D_DFT last geometry from G09 out file
Ru        0.3502180       -0.1755170        0.9477480
C       -0.6835710       -1.2543830       -0.0882250
Cl       -0.9436280        0.2091340        2.9409010
Cl        2.4339700       -1.2628740        0.3092600
H       -0.9940360       -1.0534360       -1.1188730
H       -0.9112260       -2.2642710        0.3094980
C       -0.0498720        1.6201790        0.2364240
N        0.7142520        2.7184680        0.6264240
N       -1.1330390        2.0883630       -0.5122080
C        0.1394950        4.0605950        0.1738890
C        1.8753960        2.5375640        1.5069700
C       -1.2159930        3.6225420       -0.5161560
H       -0.0875230        4.6066510        1.0916100
H       -1.2194750        3.9445250       -1.5665980
C        1.8325360        2.7901310        2.9218590
C        3.0940020        2.0291600        0.9490560
C        2.9423690        2.4461720        3.7331440
C        4.1294670        1.9062340        3.2013420
H        2.8574880        2.6046140        4.8072130
C        4.1821900        1.7376950        1.8070890
H        5.0904000        1.3359470        1.3553600
C       -1.9622190        1.3066850       -1.4330800
C       -1.6545480        1.3094520       -2.8365610
C       -3.1374790        0.6044170       -1.0154990
C       -2.5518890        0.7549920       -3.7804520
C       -3.7426230        0.1145420       -3.3835020
H       -2.2877670        0.8016340       -4.8350190
C       -3.9800990        0.0242770       -1.9995530
H       -4.8668610       -0.5091860       -1.6506270
C       -0.3160440        1.6949200       -3.3942040
O       -0.4447180        2.3539920       -4.6270340
O        0.7926920        1.3923390       -2.9087380
C        0.7994230        2.5503390       -5.4081110
H        1.5055730        3.1861970       -4.8610180
H        1.2727060        1.5816620       -5.6211810
H        0.4694670        3.0374090       -6.3321480
C       -3.5783040        0.4027390        0.4235860
H       -4.3945120        1.0912410        0.6910220
H       -2.7735310        0.5263460        1.1452880
H       -3.9715300       -0.6167190        0.5471240
C        1.1106570        5.0361120       -0.6583780
C        2.3882530        5.3722930        0.1747740
C        1.5122980        4.5043670       -2.0580580
C        0.4153410        6.4125510       -0.9027730
H        2.9258330        6.2012950       -0.3101290
H        3.0847040        4.5364040        0.2527860
H        2.1294590        5.6934840        1.1930030
H        0.6570910        4.5135280       -2.7479400
H        1.9125970        3.4932360       -2.0287860
H        2.2796300        5.1654950       -2.4898830
H        1.1145410        7.0581960       -1.4547680
H        0.1647460        6.9291650        0.0328140
H       -0.4909230        6.3269530       -1.5120160
C       -4.7199810       -0.4488180       -4.4048740
C       -5.7753270        0.5922670       -4.8823920
H       -4.1682620       -0.8184350       -5.2845610
H       -5.2487000       -1.3151800       -3.9756780
C       -6.7651490        0.0160440       -5.9227250
H       -6.3363270        0.9658090       -4.0089110
H       -5.2547400        1.4640190       -5.3137280
C       -7.8144880        1.0441940       -6.4005970
H       -7.2824690       -0.8579480       -5.4890140
H       -6.2003490       -0.3601070       -6.7940320
H       -8.4992390        0.5980710       -7.1389360
H       -7.3337630        1.9153630       -6.8737190
H       -8.4235500        1.4137290       -5.5601680
C       -2.5635880        4.2107540        0.1401070
C       -2.8149640        3.6542610        1.5673110
C       -2.5256200        5.7655770        0.2714540
C       -3.7836740        3.9299050       -0.7933820
H       -2.0931640        4.0621400        2.2813180
H       -2.7425840        2.5701740        1.6199000
H       -3.8195580        3.9474840        1.9085590
H       -3.4601730        6.0878840        0.7546960
H       -2.4747670        6.2694030       -0.7021160
H       -1.7011050        6.1236770        0.8954280
H       -3.5867570        4.2783650       -1.8195390
H       -4.6606670        4.4820330       -0.4230800
H       -4.0613040        2.8778010       -0.8470140
C        0.7579820        3.4424180        3.7565910
O        0.3354240        4.6897350        3.2533990
O        0.3963470        3.0443390        4.8810640
C       -0.4719940        5.5080260        4.1929260
H       -0.7342460        6.4079310        3.6261560
H       -1.3690460        4.9651690        4.5158960
H        0.1315200        5.7641220        5.0744170
C        3.3373500        1.8120400       -0.5343400
H        2.4347820        1.5811230       -1.0964960
H        4.0274650        0.9745700       -0.6800170
H        3.8068810        2.7067080       -0.9740440
C        5.2759190        1.4775660        4.1041520
C        5.1276620        0.0099670        4.6059050
H        6.2320070        1.5712320        3.5637250
H        5.3361910        2.1454370        4.9791570
C        6.2936800       -0.4376970        5.5184730
H        4.1740350       -0.0905460        5.1506240
H        5.0590110       -0.6636110        3.7356790
C        6.1476830       -1.8919420        6.0194250
H        6.3606500        0.2419320        6.3868120
H        7.2472120       -0.3353460        4.9701280
H        6.9940950       -2.1778600        6.6640840
H        6.1118060       -2.6013070        5.1774310
H        5.2223700       -2.0210200        6.6030780
