73
Mol_000244_2D_DFT last geometry from G09 out file
 Ru        0.4500000       -0.0557180       -0.4693430
 C       -1.0439200       -0.9274300       -1.0387660
 Cl        0.5321070       -0.8820650        1.7684550
 Cl        1.6428110        0.0253470       -2.5348670
 H       -2.0429250       -0.5304330       -1.2225410
 H       -0.8968450       -2.0122980       -1.2149620
 C       -0.0716150        1.7750020       -0.3439630
 N        0.8687110        2.7634230        0.0961680
 N       -1.2351930        2.4867090       -0.7507930
 C        2.0044820        2.4944330        1.0158450
 C        0.4754070        4.0711610       -0.3753860
 C        3.3594280        2.3791340        0.5514300
 C        1.6914990        2.3709150        2.4127770
 C        4.3600670        2.1109050        1.5154920
 C        4.0619020        1.9496440        2.8754840
 H        5.3895680        2.0141310        1.1844710
 C        2.7379220        2.0832970        3.3148590
 H        2.5015720        1.9463360        4.3671990
 C       -1.0857170        3.9194540       -0.5538960
 C       -2.4757600        1.9176080       -1.3060290
 C       -3.5404670        1.5097590       -0.4341580
 C       -2.5930630        1.8114460       -2.7326160
 C       -4.7445730        1.0721580       -1.0344240
 C       -4.8988780        1.0229600       -2.4283110
 H       -5.5675910        0.7615620       -0.3970680
 C       -3.8284060        1.3787470       -3.2644360
 H       -3.9455020        1.3131990       -4.3425100
 C       -6.2251030        0.6246180       -3.0274370
 F       -6.9525180       -0.2704560       -2.2087840
 F       -6.0941720       -0.0007550       -4.2886850
 F       -7.0808480        1.7430600       -3.2354530
 Cl        1.2247780        4.4609340       -2.1365230
 Cl        1.0392200        5.4646870        0.6720650
 Cl       -1.8542680        4.9707900       -1.8647240
 Cl       -1.9846580        4.5588150        1.0395580
 C        3.8518390        2.5661090       -0.8932920
 C        4.7899440        1.4193440       -1.3689250
 C        4.5848140        3.9340600       -1.0436340
 H        2.9883440        2.5705000       -1.5624180
 H        4.3497350        0.4298290       -1.1963410
 H        5.7732860        1.4529530       -0.8779530
 H        4.9618370        1.5217590       -2.4503530
 H        4.8722560        4.0849670       -2.0948670
 H        5.5023180        3.9607740       -0.4370950
 H        3.9536390        4.7786210       -0.7423630
 C        0.2994180        2.4948370        3.0267740
 C        0.1735000        3.5889090        4.1201610
 H        0.0435510        1.5211460        3.4710910
 H       -0.4504900        2.6891330        2.2609530
 H        0.4066430        4.5862690        3.7249450
 H        0.8362090        3.3993820        4.9760640
 H       -0.8584490        3.6088720        4.5025780
 C        5.1691160        1.6929820        3.8663910
 F        6.2415660        0.9530050        3.3179790
 F        4.7352260        0.9867850        5.0106550
 F        5.7457020        2.9031030        4.3544370
 C       -3.4800130        1.4608000        1.1043160
 C       -3.5364720       -0.0016110        1.6401180
 C       -4.6129490        2.3024480        1.7608960
 H       -2.5258290        1.8838550        1.4304000
 H       -2.6877820       -0.6021760        1.2930880
 H       -4.4668310       -0.5089260        1.3462030
 H       -3.4986740        0.0120760        2.7395500
 H       -4.4435360        2.3626690        2.8464270
 H       -5.6012580        1.8444790        1.6102010
 H       -4.6470540        3.3247810        1.3651190
 C       -1.4736820        2.1442320       -3.7204910
 C       -1.2630250        1.1072090       -4.8537670
 H       -0.5254270        2.2719520       -3.1953030
 H       -1.7003110        3.1186490       -4.1820140
 H       -0.3979210        1.4122600       -5.4604900
 H       -2.1262020        1.0334170       -5.5302970
 H       -1.0480880        0.1076670       -4.4534740
