72
Mol_000248_2D_DFT last geometry from G09 out file
 Ru        0.2692230       -0.4995800       -0.2394210
 C        2.0478280       -0.5065960       -0.6125510
 Cl       -0.5338220       -0.9629910       -2.4588710
 Cl        0.2151500       -1.0215560        2.1095090
 H        2.6915340        0.3497830       -0.8338860
 H        2.5234910       -1.5074380       -0.6654730
 C       -0.0605680        1.3922050       -0.0718290
 N        0.8240040        2.4489180        0.1047270
 N       -1.3615160        1.9414270       -0.0922490
 C        0.1470480        3.7755480        0.0568350
 C        2.1919660        2.4222570        0.5858810
 C       -1.3547050        3.4140900        0.1008720
 H        0.3938500        4.3095130       -0.8697230
 H        0.4655500        4.3911950        0.9054110
 H       -1.9168630        3.9082620       -0.7023930
 C        2.4298720        1.9942080        1.9134510
 C        3.2677500        2.8899990       -0.2222760
 C        3.7268120        2.0098530        2.4487020
 C        4.8261100        2.4698500        1.6760370
 H        3.8772800        1.6891730        3.4790270
 C        4.5623060        2.8987830        0.3510800
 H        5.3981300        3.2123280       -0.2752720
 C       -2.5610270        1.3099880       -0.6443900
 C       -2.8551950        1.5908550       -2.0010610
 C       -3.4397370        0.4985860        0.1266410
 C       -3.9957060        1.0680270       -2.6214870
 C       -4.8762620        0.2215000       -1.8974580
 H       -4.1690170        1.2655110       -3.6787710
 C       -4.5687440       -0.0403660       -0.5421460
 H       -5.2502050       -0.6652820        0.0331760
 H       -2.1528150        2.1850840       -2.5867070
 C       -3.2289410        0.1745850        1.6043750
 C       -4.4382220        0.4884960        2.5234830
 H       -2.3490130        0.7006980        1.9856820
 H       -2.9930250       -0.8978450        1.6986330
 H       -5.3260680       -0.1063050        2.2645300
 H       -4.7162040        1.5500900        2.4768790
 H       -4.1758890        0.2506000        3.5658870
 C       -2.0233230        3.8964950        1.4132340
 F       -3.4098740        3.6658130        1.4408990
 F       -1.4775330        3.3208390        2.5767860
 F       -1.8552350        5.3043960        1.5372400
 C       -6.0832980       -0.3746440       -2.5465300
 C       -6.8700360        0.3789230       -3.4590410
 C       -6.4776160       -1.7121340       -2.2727180
 C       -8.0094190       -0.1810690       -4.0712210
 H       -6.6066420        1.4161290       -3.6701000
 C       -8.3889900       -1.5111640       -3.7878810
 H       -8.6030410        0.4214750       -4.7613150
 C       -7.6155790       -2.2739020       -2.8857860
 H       -9.2701950       -1.9459790       -4.2627620
 H       -7.8911260       -3.3073330       -2.6677350
 H       -5.8736020       -2.3260750       -1.6037870
 H        1.5970660        1.6362190        2.5146730
 C        3.0988140        3.3198260       -1.6790880
 C        3.2921340        4.8411940       -1.9259490
 H        2.1148540        3.0077030       -2.0544000
 H        3.8412350        2.7809030       -2.2910600
 H        4.3017150        5.1680160       -1.6375630
 H        2.5746330        5.4459940       -1.3516830
 H        3.1564590        5.0748360       -2.9932820
 C        6.2120050        2.4900340        2.2354050
 C        7.1095530        3.5510410        1.9374210
 C        6.6724850        1.4461770        3.0831300
 C        8.4162670        3.5681900        2.4653140
 H        6.7759310        4.3825540        1.3153700
 C        8.8590460        2.5228530        3.3047820
 H        9.0832250        4.3995880        2.2298280
 C        7.9793220        1.4616420        3.6105080
 H        9.8707200        2.5353220        3.7137700
 H        8.3119420        0.6432360        4.2514980
 H        6.0170400        0.6042520        3.3084930
