52
Mol_000247_2D_DFT last geometry from G09 out file
 Ru       -0.0087390       -0.1216110        0.4031650
 C        1.7438890       -0.1942820       -0.0809380
 Cl       -0.9423470       -1.2004380       -1.5315850
 Cl        0.0093140       -0.0976040        2.7993240
 H        2.3055940        0.5809200       -0.6126390
 H        2.2760870       -1.1464560        0.1125330
 C       -0.2840620        1.7580620        0.0978960
 N        0.6250030        2.8103480        0.1889860
 N       -1.5266810        2.3393380       -0.2412960
 C        0.0460020        4.1144090       -0.2477780
 C        1.9181820        2.8441970        0.8197250
 C       -1.4679820        3.8222900       -0.2988780
 H        0.4307700        4.3966820       -1.2359420
 H        0.3067550        4.9018150        0.4676090
 H       -1.9220090        4.1893120       -1.2279480
 C        2.0338200        2.6980940        2.2231650
 C        3.1001030        3.1471070        0.0987420
 C        3.2799750        2.8153250        2.8634400
 C        4.4579930        3.1113600        2.1351560
 H        3.3295350        2.6830970        3.9449580
 C        4.3454650        3.2821720        0.7330670
 H        5.2266170        3.5136130        0.1359610
 C       -2.6754520        1.6702770       -0.8172010
 C       -2.8379430        1.7026940       -2.2229760
 C       -3.6905160        1.0460800       -0.0560270
 C       -3.9596780        1.1328050       -2.8442500
 C       -4.9648050        0.4913790       -2.0792440
 H       -4.0434180        1.1673690       -3.9312200
 C       -4.8097060        0.4600510       -0.6741220
 H       -5.5639290       -0.0201930       -0.0519160
 H       -2.0537290        2.1560660       -2.8305850
 Cl       -3.5935000        0.9637970        1.7496720
 C       -2.2395360        4.5411730        0.8394990
 F       -3.6256560        4.3214830        0.7852230
 F       -1.8027290        4.1996720        2.1306720
 F       -2.0545140        5.9484000        0.7043500
 C       -6.1561280       -0.1859730       -2.7431920
 C       -5.8887670       -1.6791760       -3.0812520
 H       -6.4150910        0.3476220       -3.6715310
 H       -7.0371060       -0.1223200       -2.0850990
 H       -5.6614080       -2.2579420       -2.1739770
 H       -5.0351590       -1.7860210       -3.7665920
 H       -6.7730710       -2.1265480       -3.5608930
 H        1.1393920        2.4735250        2.7982440
 Cl        3.0520390        3.3388290       -1.7176020
 C        5.8135850        3.2111100        2.8228010
 C        6.5519270        1.8467120        2.9121490
 H        5.6803070        3.6084560        3.8413890
 H        6.4544250        3.9277810        2.2852410
 H        6.7444840        1.4308840        1.9117910
 H        5.9600000        1.1097220        3.4747740
 H        7.5196990        1.9685330        3.4225540
