91
M00000103_2D_DFT last geometry from G09 out file
Ru        0.2268660        0.3745800       -0.6674640
C       -1.3613260       -0.4592400       -0.9319000
Cl        0.6374500       -0.2653790        1.6259080
Cl        0.8350520        0.5050740       -3.0146990
H       -2.3671380       -0.0489190       -1.0277530
H       -1.2619550       -1.5603620       -1.0564130
C       -0.1007440        2.2856420       -0.4493220
N        0.9932940        3.1349960       -0.2298400
N       -1.2345910        3.0630440       -0.6048510
C        0.6293610        4.6031090       -0.4560250
C        2.1286290        2.7705640        0.6249570
C       -0.9426010        4.5675950       -0.6007200
H        0.9030930        5.1468760        0.4568500
H       -1.2039160        4.9244530       -1.6038370
C        1.9815140        2.9952640        2.0198860
C        3.3931420        2.2515260        0.2019460
C        2.9719300        2.8004460        2.9790590
C        4.2351210        2.3294660        2.5570970
H        2.7452150        2.9943900        4.0267450
C        4.4050140        2.0674650        1.1838660
H        5.3743340        1.7012170        0.8477360
C       -2.5096380        2.5561090       -1.0707360
C       -2.8520540        2.7140230       -2.4352070
C       -3.4820120        1.9383490       -0.2208900
C       -4.0706140        2.3240390       -2.9949840
C       -5.0433120        1.7310200       -2.1585870
H       -4.2411710        2.4797790       -4.0597340
C       -4.7226540        1.5536500       -0.7936980
H       -5.4677820        1.0939340       -0.1474210
F       -1.9190000        3.3154520       -3.3007510
C       -3.2394710        1.7114410        1.2734640
C       -3.7793400        0.3875560        1.8796350
H       -2.1666520        1.7652220        1.4814600
H       -3.7076770        2.5448120        1.8257330
C       -3.3979000        0.2394030        3.3732860
H       -4.8772490        0.3365210        1.7921880
H       -3.3744000       -0.4712130        1.3220070
C       -3.9238230       -1.0676760        4.0059800
H       -3.7929730        1.1024100        3.9391420
H       -2.3007620        0.2732890        3.4699560
H       -3.6347080       -1.1367710        5.0664270
H       -3.5118500       -1.9503400        3.4913640
H       -5.0233140       -1.1290010        3.9538840
C        1.4335010        5.2816640       -1.6665950
C        2.9211070        5.4779130       -1.2422200
C        1.3469200        4.4553940       -2.9791110
C        0.9027140        6.7116170       -1.9952600
H        2.9971040        6.0597530       -0.3097360
H        3.4574760        6.0368840       -2.0235680
H        3.4480410        4.5356630       -1.0941680
H        0.3341190        4.4638360       -3.4003090
H        1.6302570        3.4107640       -2.8426210
H        2.0191030        4.8944110       -3.7319280
H        1.4979730        7.1137900       -2.8284490
H        1.0103330        7.4060460       -1.1526400
H       -0.1438910        6.7152260       -2.3228010
C       -6.3818050        1.2880880       -2.7238390
H       -6.2558650        0.4548090       -3.4341710
H       -6.8768770        2.1055740       -3.2706220
H       -7.0637470        0.9504640       -1.9322390
C       -1.8178740        5.4574030        0.4098510
C       -1.7406320        5.0141370        1.8959080
C       -1.3545430        6.9474950        0.3680040
C       -3.3100180        5.4748180       -0.0550870
H       -2.5341570        5.5209570        2.4663050
H       -0.7833890        5.2909420        2.3510970
H       -1.8640970        3.9385560        2.0237600
H       -1.4991290        7.4065500       -0.6177760
H       -0.3061620        7.0733090        0.6633720
H       -1.9615030        7.5166120        1.0877130
H       -3.8526580        6.2544230        0.5003130
H       -3.8269460        4.5293180        0.1249590
H       -3.3992780        5.7138310       -1.1259530
F        0.7354620        3.4473300        2.4918200
C        3.7695490        1.9026360       -1.2387760
C        4.2848710        0.4482540       -1.4475480
H        2.9264960        2.0660050       -1.9120330
H        4.5737200        2.5882390       -1.5595360
C        4.8123640        0.2115170       -2.8827460
H        5.0902270        0.2186530       -0.7319890
H        3.4700580       -0.2607500       -1.2386490
C        5.2915080       -1.2380440       -3.1179130
H        5.6466400        0.9083300       -3.0840210
H        4.0175390        0.4514740       -3.6060630
H        5.6683860       -1.3693150       -4.1446670
H        4.4674080       -1.9540390       -2.9709570
H        6.1035350       -1.5126530       -2.4247380
C        5.3483510        2.0842080        3.5596330
H        6.3189930        1.9528250        3.0626510
H        5.1506320        1.1724480        4.1473460
H        5.4411960        2.9165170        4.2736540
