73
M00000102_2D_DFT last geometry from G09 out file
Ru        0.2523030        0.1800130       -0.3608060
C       -0.9609750       -0.6032240       -1.4600350
Cl       -0.7582080       -0.2188880        1.8011860
Cl        1.9737300        0.1847740       -2.1316290
H       -1.6184910       -0.1790840       -2.2215130
H       -0.9395360       -1.7150130       -1.4034130
C       -0.1072290        2.1043780       -0.3307020
N        0.6760750        2.9375610        0.4637780
N       -1.0163930        2.8900500       -1.0077220
C        0.4706490        4.4088920        0.1503720
C        1.6464350        2.3952610        1.4028310
C       -0.8522610        4.3839610       -0.7152040
H        0.2828410        4.9119190        1.0996800
H       -0.6628210        4.8573810       -1.6816620
C        1.5631330        2.5136400        2.8315960
C        2.7104070        1.6337620        0.8601780
C        2.5468990        1.8703720        3.6287200
C        3.5938310        1.1189560        3.0681410
H        2.4652110        1.9548160        4.7098490
C        3.6682440        0.9942710        1.6698820
H        4.4624970        0.4145280        1.1977890
C       -2.0889110        2.3421750       -1.8093290
C       -2.1269390        2.3956010       -3.2362700
C       -3.1374980        1.6716090       -1.1301480
C       -3.2408820        1.8377660       -3.9196070
C       -4.3026700        1.2331490       -3.2247630
H       -3.2550850        1.8751290       -5.0072500
C       -4.2381660        1.1328510       -1.8192410
H       -5.0305330        0.6324480       -1.2610820
C       -1.0328870        2.9935910       -4.0699750
O       -0.7978370        2.2107330       -5.1988010
O       -0.4033390        4.0488800       -3.8365650
C        0.3043160        2.6420370       -6.0914230
H        0.2915030        1.9167060       -6.9115310
H        0.1285060        3.6621350       -6.4593480
H        1.2583430        2.6012110       -5.5493520
H       -3.0657480        1.5499540       -0.0533740
C        1.7484560        5.1197320       -0.5062470
C        2.3182060        4.3622170       -1.7362110
C        1.3841540        6.5657950       -0.9660130
C        2.8656830        5.2821530        0.5739210
H        1.6042180        4.3394970       -2.5656410
H        2.5973710        3.3306330       -1.5042260
H        3.2246000        4.8766440       -2.0912290
H        2.2855830        7.0374610       -1.3846190
H        1.0431640        7.1915560       -0.1310260
H        0.6203040        6.5824590       -1.7533460
H        3.3266240        4.3309510        0.8565270
H        2.4787560        5.7609900        1.4863990
H        3.6664160        5.9241910        0.1769210
H       -5.1527240        0.8261270       -3.7733870
C       -2.1369580        5.1196650       -0.0999220
C       -2.7322910        4.4180670        1.1514590
C       -1.7581370        6.5754600        0.3211940
C       -3.2408570        5.2752700       -1.1959420
H       -2.0257370        4.4186550        1.9857550
H       -3.0277700        3.3838940        0.9546030
H       -3.6347820        4.9591230        1.4759030
H       -1.4016590        7.1712400       -0.5286240
H       -1.0026910        6.6061590        1.1152500
H       -2.6585000        7.0699750        0.7148980
H       -3.7324610        4.3318170       -1.4485770
H       -2.8309250        5.7073990       -2.1213760
H       -4.0221230        5.9585370       -0.8300810
C        0.5039070        3.2723440        3.5679430
O        0.2273380        2.6816860        4.8013760
O       -0.0681620        4.3238000        3.1972150
C       -0.7960080        3.3427890        5.6408880
H       -0.8382130        2.7340090        6.5501810
H       -0.5025950        4.3769300        5.8691310
H       -1.7661480        3.3423170        5.1260310
H        2.8019480        1.5509240       -0.2177130
H        4.3277000        0.6369340        3.7146280
