69
Mol_000097_2D_DFT last geometry from G09 out file
 Ru        0.6301270        0.0446990       -0.7332240
 C       -0.7402810       -0.7109330       -1.6540700
 Cl        0.2272860       -0.8364010        1.4743790
 Cl        2.0862390        0.4667100       -2.6478970
 H       -1.6775320       -0.2663870       -1.9963380
 H       -0.5745710       -1.7805570       -1.9102400
 C        0.0548760        1.8715320       -0.3396980
 N        0.8241410        2.6868320        0.4853170
 N       -1.0290400        2.6297490       -0.7854560
 C        0.3782310        4.1041070        0.4271650
 C        2.0954760        2.4018110        1.1149740
 C       -1.0548610        4.0243360       -0.1556160
 H        1.0578590        4.6647630       -0.2361540
 H        0.4107550        4.5433750        1.4278320
 C       -2.1528970        4.2102880        0.9409420
 C       -1.3699370        5.2002720       -1.1192440
 C       -2.2501710        5.7491470        1.1412990
 H       -1.9143670        3.6722160        1.8657960
 H       -3.1072870        3.8213900        0.5650090
 C       -1.6907890        6.3902320       -0.1762220
 H       -3.2895450        6.0528770        1.3335720
 H       -1.6597740        6.0759130        2.0103250
 H       -0.7831580        6.9750900        0.0371650
 H       -2.4114740        7.0808390       -0.6378920
 H       -2.2484480        4.9484050       -1.7235920
 H       -0.5428580        5.4095550       -1.8100560
 C        3.1845530        1.9835420        0.3210880
 C        2.3106470        2.6740660        2.5122340
 C        4.4688000        1.7927760        0.8647680
 C        4.7100400        2.0547610        2.2310340
 H        5.2785680        1.4623000        0.2129710
 C        3.6248140        2.4990050        3.0206400
 H        3.8011690        2.6873540        4.0786830
 C       -2.2548730        2.0840770       -1.3388170
 C       -2.7191190        2.3468290       -2.6785690
 C       -3.0711980        1.3284100       -0.4617840
 C       -4.0214540        1.8524960       -3.0154730
 C       -4.8363050        1.1230770       -2.1279460
 H       -4.3906370        2.0178670       -4.0250890
 C       -4.3353980        0.8456130       -0.8317670
 H       -4.9243830        0.2654330       -0.1203500
 H        3.0369550        1.8403060       -0.7462180
 N        1.2626990        3.1646410        3.3588430
 C        0.1371230        2.2487220        3.6637230
 C        1.6402240        3.9990520        4.5145140
 H       -0.7387890        2.8336370        3.9849030
 H        0.3962280        1.5425680        4.4778510
 H       -0.1267580        1.6545750        2.7885960
 H        0.7497940        4.5499940        4.8550580
 H        2.4049680        4.7311750        4.2236160
 H        2.0202560        3.4208030        5.3825250
 C        6.0814940        1.8357050        2.8495530
 H        6.1316990        0.8585470        3.3591400
 H        6.3194820        2.6056970        3.5987210
 H        6.8733870        1.8469950        2.0875990
 N       -1.9942930        3.0856280       -3.6390520
 C       -0.5605030        2.8473600       -3.9003000
 C       -2.6974300        3.6915220       -4.7796810
 H       -0.0891240        2.3079800       -3.0839750
 H       -0.0295480        3.8024810       -4.0431960
 H       -0.4256700        2.2422880       -4.8166860
 H       -2.0659840        4.4926610       -5.1916630
 H       -3.6479140        4.1410040       -4.4626570
 H       -2.9031330        2.9768690       -5.6022080
 H       -2.6859090        1.1156200        0.5346770
 C       -6.2097630        0.6292170       -2.5543610
 H       -6.3326470       -0.4439860       -2.3410770
 H       -6.3850880        0.7811980       -3.6281460
 H       -7.0078760        1.1589760       -2.0080920
