95
Mol_000278_2D_DFT last geometry from G09 out file
 Ru        0.2044310       -0.4207800       -0.9619170
 C       -1.3507690       -1.3362310       -1.1594210
 Cl        0.9533680       -1.5017590        1.0606070
 Cl        0.6026020        0.1344850       -3.3001330
 H       -2.3732950       -1.0142690       -0.9491350
 H       -1.2315000       -2.3728110       -1.5417080
 C       -0.2875470        1.3981740       -0.4158250
 N        0.6969320        2.3112620       -0.0068880
 N       -1.4929910        2.0676080       -0.5315140
 C        1.7614170        1.9705930        0.9381460
 C        0.2080090        3.7688660       -0.2736060
 C        3.1803850        2.0411520        0.6828350
 C        1.3368960        1.6091220        2.2403010
 C        4.0534250        1.7703270        1.7784850
 C        3.6144230        1.4366210        3.0752790
 H        5.1259480        1.7932440        1.5983420
 C        2.2223710        1.3536260        3.2965950
 H        1.8306600        1.0747880        4.2757090
 C       -1.3844680        3.5570840       -0.0863430
 C       -2.6755670        1.5340180       -1.1887560
 C       -3.8454360        1.0559540       -0.4930550
 C       -2.6729560        1.5284840       -2.6021200
 C       -4.9582210        0.6562320       -1.2930960
 C       -4.9602350        0.6883020       -2.7040790
 H       -5.8461780        0.2775650       -0.7908700
 C       -3.7824440        1.1168690       -3.3587990
 H       -3.7254130        1.1282900       -4.4479670
 C       -6.1880010        0.2635730       -3.4938180
 H       -6.8873230       -0.3217060       -2.8806090
 H       -5.9118140       -0.3458110       -4.3672800
 H       -6.7370670        1.1419750       -3.8733070
 C        0.6908830        4.0700720       -1.7473320
 C        0.5289520        5.4751140       -2.4009180
 H        0.2537440        3.3182890       -2.4185500
 H        1.7636650        3.8497900       -1.7206060
 C        1.5245070        5.6630890       -3.5714640
 H        0.6871930        6.2803090       -1.6690170
 H       -0.4860490        5.6154800       -2.7943390
 H        1.3991320        4.8748800       -4.3307700
 H        1.3713450        6.6342700       -4.0686970
 H        2.5686830        5.6252580       -3.2226950
 C        0.7489670        4.8193060        0.7441580
 C        2.1905100        5.3802460        0.6355720
 H        0.6310320        4.4170200        1.7568970
 H        0.0695630        5.6808120        0.6729620
 C        2.4426470        6.4652710        1.7093370
 H        2.3726310        5.8173400       -0.3548100
 H        2.9230960        4.5804300        0.7605460
 H        2.3231180        6.0597950        2.7268920
 H        3.4664010        6.8639620        1.6297320
 H        1.7468300        7.3139340        1.6028200
 C       -2.2023760        4.5160680       -1.0093040
 C       -3.7468810        4.6239110       -0.8848530
 H       -1.9761930        4.2727330       -2.0529830
 H       -1.7949920        5.5223510       -0.8335800
 C       -4.2959350        5.7621230       -1.7779570
 H       -4.0517190        4.8144270        0.1524700
 H       -4.2238470        3.6850370       -1.1834990
 H       -4.0501780        5.5947850       -2.8388380
 H       -5.3925380        5.8273610       -1.6983030
 H       -3.8818020        6.7420870       -1.4891310
 C       -1.9053360        3.6054470        1.4030420
 C       -2.1375390        4.9534700        2.1495180
 H       -1.2452060        2.9840770        2.0210540
 H       -2.8646250        3.0777080        1.3769980
 C       -3.0820160        4.7676980        3.3622400
 H       -2.5680880        5.7131670        1.4820470
 H       -1.1925940        5.3708090        2.5187070
 H       -2.6817650        4.0238790        4.0700110
 H       -3.2078360        5.7142550        3.9116210
 H       -4.0813920        4.4266920        3.0485340
 N        3.7520160        2.4236880       -0.5700490
 C        5.1267550        2.9578290       -0.5824100
 C        3.4679430        1.5921860       -1.7580930
 H        5.9121540        2.1776860       -0.5008960
 H        5.2713010        3.6808690        0.2302830
 H        5.2847480        3.4823680       -1.5366430
 H        2.4091810        1.3610310       -1.8342020
 H        4.0361890        0.6404150       -1.7418360
 H        3.7458030        2.1409490       -2.6694940
 H        0.2690840        1.5228440        2.4230560
 C        4.6082490        1.1165840        4.1799450
 H        4.2735320        1.5126690        5.1505430
 H        5.6040460        1.5314120        3.9691340
 H        4.7231270        0.0258400        4.2978280
 N       -3.9585330        1.0059240        0.9279760
 C       -5.2996000        1.0438880        1.5356190
 C       -2.9991590        0.2087930        1.7239790
 H       -5.8223750        0.0650590        1.5270990
 H       -5.9337600        1.7816080        1.0275130
 H       -5.1973640        1.3498260        2.5879620
 H       -2.0071540        0.2155410        1.2766130
 H       -3.3235070       -0.8476330        1.8112320
 H       -2.9251240        0.6226280        2.7411380
 H       -1.7666900        1.8424940       -3.1128620
