63
Mol_000082_2D_DFT last geometry from G09 out file
 Ru        0.4281750        0.1119890       -0.1301810
 C       -0.8366270       -0.6842130       -1.1620400
 Cl       -0.4692800       -0.1214460        2.1128310
 Cl        2.2499720        0.0500260       -1.7168690
 H       -1.5884870       -0.2157860       -1.8033200
 H       -0.7979980       -1.7952070       -1.1730940
 C        0.0089070        2.0000310       -0.2892620
 N        0.9452210        2.9487090        0.0895800
 N       -1.1288650        2.6801260       -0.7076160
 C        0.5072380        4.3269720       -0.2370770
 C        2.2437310        2.7219330        0.6807030
 C       -1.0207050        4.1796180       -0.4703590
 H        1.0231370        4.6859380       -1.1431460
 H        0.7462350        5.0060470        0.5903180
 C       -1.8632200        4.6716830        0.7507280
 C       -1.5411190        5.0890930       -1.6143210
 C       -2.0159150        6.2087100        0.5489390
 H       -1.3933040        4.4038630        1.7072500
 H       -2.8475260        4.1863600        0.7216820
 C       -1.6578030        6.4862430       -0.9518840
 H       -3.0415650        6.5298170        0.7825670
 H       -1.3488440        6.7718250        1.2182360
 H       -0.7020540        7.0278700       -1.0237340
 H       -2.4141730        7.1084200       -1.4519610
 H       -2.5348920        4.7453800       -1.9311120
 H       -0.8842670        5.0785690       -2.4954800
 C        3.4217990        3.0615650       -0.0229800
 C        2.3652670        2.2352550        2.0021430
 C        4.6848740        2.9109270        0.5652970
 C        4.8290340        2.3952650        1.8937510
 H        5.5597610        3.1673630       -0.0270680
 C        3.6275860        2.0610950        2.5935760
 H        3.6653140        1.6621260        3.6042740
 C       -2.3971090        2.0876820       -1.0603580
 C       -2.8335860        2.0729100       -2.4053230
 C       -3.2457250        1.5256590       -0.0775370
 C       -4.0779530        1.5285410       -2.7640440
 C       -4.9499410        0.9632630       -1.7786930
 H       -4.3585700        1.5354740       -3.8145330
 C       -4.4885950        0.9726440       -0.4230990
 H       -5.0906990        0.5355800        0.3697100
 H        3.3567250        3.4122660       -1.0529760
 H        1.4721360        1.9753070        2.5670120
 N        6.0902970        2.2256740        2.4790530
 C        7.3090540        2.5232610        1.7145090
 C        6.2090720        1.6308760        3.8173500
 H        7.3988700        1.8916820        0.8124100
 H        8.1887090        2.3384550        2.3419600
 H        7.3433190        3.5794910        1.3964190
 H        7.2670090        1.5648730        4.0966920
 H        5.7852260        0.6115390        3.8561370
 H        5.6990450        2.2412690        4.5824960
 H       -2.1809760        2.4691100       -3.1839510
 H       -2.9133440        1.4854670        0.9583750
 N       -6.1923360        0.4195510       -2.1258050
 C       -6.6188670        0.3797640       -3.5313340
 C       -7.0535170       -0.1789330       -1.0958190
 H       -6.6865790        1.3915260       -3.9676790
 H       -7.6121480       -0.0784030       -3.5996830
 H       -5.9305460       -0.2162920       -4.1567500
 H       -7.3187840        0.5508190       -0.3118570
 H       -6.5754160       -1.0463780       -0.6069510
 H       -7.9861820       -0.5260410       -1.5551010
