115
M00000458_2D_DFT last geometry from G09 out file
 Ru       -0.2710140        0.4310550       -0.2902390
 C       -1.9210050       -0.2135060       -0.6765490
 Cl       -0.3108780        0.1803640        2.1132150
 Cl        0.6370940        0.0047710       -2.5190170
 H       -2.8073170        0.3058890       -1.0429710
 H       -2.0013390       -1.3177880       -0.5651950
 C       -0.3165750        2.3815000       -0.4680200
 N        0.8331720        3.1205130       -0.1597250
 N       -1.2703220        3.2299500       -1.0096720
 C        0.7540870        4.5464010       -0.7104280
 C        1.7955450        2.7668930        0.9164230
 C       -0.7356070        4.6497250       -1.2466610
 H        0.8922420        5.2305230        0.1374180
 H       -0.6912460        4.7782190       -2.3346570
 C        1.5391000        3.2629320        2.2333370
 C        2.9931210        2.0048500        0.6973180
 C        2.4923820        3.0791120        3.2601070
 C        3.7110210        2.4048390        3.0574650
 H        2.2425490        3.4719970        4.2431730
 C        3.9103850        1.8718960        1.7673670
 H        4.8277800        1.3243690        1.5625210
 C       -2.5619190        2.7977660       -1.5508080
 C       -2.7202440        2.6507480       -2.9615590
 C       -3.6871110        2.5664700       -0.6885550
 C       -4.0000030        2.3510740       -3.4887640
 C       -5.1430390        2.1895720       -2.6794090
 H       -4.0785130        2.2457020       -4.5681560
 C       -4.9404860        2.2915100       -1.2834050
 H       -5.7880130        2.1505230       -0.6162060
 C       -1.5761050        2.7855320       -3.9523670
 H       -0.6376370        2.3970990       -3.5516300
 H       -1.4217290        3.8328490       -4.2604920
 H       -1.8000760        2.2173940       -4.8649530
 C       -3.6306230        2.6151530        0.8430090
 C       -4.2803480        1.4226120        1.6017810
 H       -2.5929300        2.6892120        1.1775540
 H       -4.1461730        3.5320880        1.1786290
 C       -4.2105750        1.6020590        3.1381260
 H       -5.3363760        1.3045100        1.3101650
 H       -3.7668140        0.4890030        1.3312860
 C       -4.8412490        0.4248110        3.9140790
 H       -4.7205270        2.5409650        3.4215590
 H       -3.1563160        1.7077340        3.4411850
 H       -5.9049510        0.2941680        3.6555910
 H       -4.7787630        0.5883270        5.0015790
 H       -4.3201760       -0.5190340        3.6891150
 C        1.9156960        4.8963330       -1.7702270
 C        3.2796700        5.0007420       -1.0192060
 C        2.0019170        3.8648510       -2.9301440
 C        1.7229490        6.2891880       -2.4462950
 H        3.2193280        5.7197520       -0.1869630
 H        4.0532130        5.3645440       -1.7121640
 H        3.6216820        4.0505240       -0.6121750
 H        2.9543240        3.9921660       -3.4660910
 H        1.1999620        4.0194470       -3.6638410
 H        1.9447710        2.8316770       -2.5892090
 H        2.5481210        6.4348910       -3.1594530
 H        1.7629960        7.1187460       -1.7298950
 H        0.7920860        6.3619520       -3.0201900
 C       -6.5567760        1.8916090       -3.2518430
 C       -7.0603820        0.5150240       -2.7087620
 C       -7.5450980        3.0180700       -2.8075000
 C       -6.5725450        1.8273790       -4.8053460
 H       -7.1278910        0.5044390       -1.6121760
 H       -6.3831370       -0.2975620       -3.0118320
 H       -8.0617780        0.2910370       -3.1075050
 H       -7.2199250        3.9981100       -3.1880820
 H       -7.6220390        3.0911880       -1.7138950
 H       -8.5535670        2.8168030       -3.2004450
 H       -7.5956590        1.6257030       -5.1551320
 H       -5.9290450        1.0225660       -5.1902560
 H       -6.2494490        2.7760210       -5.2591870
 C       -1.6611250        5.8709970       -0.7393660
 C       -2.0424980        5.8316850        0.7639170
 C       -0.9524300        7.2447160       -0.9561060
 C       -2.9660600        5.9426310       -1.5977440
 H       -1.1903970        6.0882220        1.4032550
 H       -2.4287170        4.8643170        1.0781540
 H       -2.8247770        6.5817050        0.9554230
 H       -1.6098880        8.0332760       -0.5608170
 H       -0.7779110        7.4695880       -2.0145340
 H       -0.0007200        7.3208610       -0.4178770
 H       -3.4743310        6.8986830       -1.4006510
 H       -3.6737560        5.1422030       -1.3715130
 H       -2.7448460        5.9067840       -2.6749490
 C        0.2585740        3.9675630        2.6382070
 H       -0.0277990        3.6604800        3.6531250
 H       -0.5733160        3.7286300        1.9788110
 H        0.3861410        5.0613990        2.6565250
 C        3.4166870        1.3406270       -0.6173920
 C        3.7918280       -0.1669710       -0.5108050
 H        2.6371690        1.4346420       -1.3729610
 H        4.3012310        1.8755700       -1.0067840
 C        4.4247230       -0.7128120       -1.8134090
 H        4.4974680       -0.3356030        0.3173230
 H        2.8893740       -0.7501570       -0.2723490
 C        4.7561130       -2.2198320       -1.7392900
 H        5.3490950       -0.1470820       -2.0324170
 H        3.7375670       -0.5349050       -2.6548460
 H        5.4583560       -2.4391560       -0.9181790
 H        5.2156410       -2.5722090       -2.6765630
 H        3.8449560       -2.8153520       -1.5699480
 C        4.7773130        2.2116880        4.1701000
 C        4.9835990        0.6845200        4.4315010
 C        6.1292250        2.8491240        3.7136030
 C        4.3650260        2.8755950        5.5144890
 H        5.3401050        0.1588350        3.5351270
 H        4.0414800        0.2102680        4.7438180
 H        5.7274820        0.5306980        5.2286300
 H        6.0143990        3.9293940        3.5370630
 H        6.5052500        2.3957280        2.7860860
 H        6.8979800        2.7094980        4.4893520
 H        4.2179980        3.9609520        5.4090700
 H        5.1581580        2.7204220        6.2607610
 H        3.4409280        2.4386270        5.9207100
