77
M00000457_2D_DFT last geometry from G09 out file
 Ru        0.4561670        0.0760720       -0.7211410
 C       -1.1352790       -0.7547860       -0.3526770
 Cl        1.3646050       -0.8074550        1.4054980
 Cl        0.2957200        0.2023690       -3.1613390
 H       -1.9866630       -0.3656160        0.2087990
 H       -1.2028510       -1.8338370       -0.6097930
 C        0.0499880        1.9155370       -0.3041550
 N        1.0712150        2.8108980        0.0881390
 N       -1.0964250        2.6860940       -0.5210860
 C        0.7220920        4.2453670       -0.2292890
 C        2.0988450        2.5189660        1.0757450
 C       -0.8341230        4.1908770       -0.4388330
 H        0.9580700        4.8570530        0.6486550
 H       -1.0797640        4.5962150       -1.4302070
 C        1.9050960        3.0238700        2.3812820
 C        3.3233860        1.8307790        0.8042300
 C        2.8754870        2.8867000        3.3873250
 C        4.1054510        2.2363390        3.1283890
 H        2.6647230        3.2746220        4.3859600
 C        4.3011130        1.7292560        1.8292100
 H        5.2258640        1.1944610        1.6167380
 C       -2.2778610        2.2088340       -1.2355590
 C       -2.2562610        2.3408080       -2.6415490
 C       -3.4657560        1.6882480       -0.6185290
 C       -3.3410540        1.9587020       -3.4476900
 C       -4.5153560        1.4261540       -2.8697800
 H       -3.2563320        2.0522020       -4.5317130
 C       -4.5479890        1.3157020       -1.4643470
 H       -5.4476530        0.9068240       -1.0093690
 H       -1.3504370        2.7025600       -3.1161010
 C       -3.6528600        1.5052720        0.8709820
 C       -5.0754060        1.3778150        1.4351400
 O       -2.6803290        1.4476350        1.6708360
 H       -5.7683660        2.1216730        1.0177880
 H       -5.4900570        0.3779850        1.2278360
 H       -5.0194500        1.4966070        2.5234040
 C        1.5862450        4.8466520       -1.4372520
 C        3.0836140        4.9229110       -1.0100730
 C        1.4724830        4.0060700       -2.7375700
 C        1.1480540        6.3068320       -1.7630710
 H        3.5411480        3.9339140       -0.9283530
 H        3.2088850        5.4379320       -0.0448090
 H        3.6538770        5.4871750       -1.7631140
 H        0.4719320        4.0786840       -3.1857630
 H        1.6955110        2.9477670       -2.5768750
 H        2.1822720        4.3906020       -3.4858660
 H        1.7692100        6.6861540       -2.5880930
 H        1.2873440        6.9842370       -0.9092810
 H        0.1032140        6.3751620       -2.0912790
 C       -5.6789510        0.9648900       -3.7298840
 H       -6.5904690        0.8085020       -3.1367060
 H       -5.4416680        0.0114930       -4.2302980
 H       -5.9102000        1.6947280       -4.5204040
 C       -1.7172150        5.0347330        0.5966970
 C       -1.5933110        4.5391240        2.0647170
 C       -1.2823320        6.5344310        0.5645640
 C       -3.2165790        5.0338030        0.1640450
 H       -0.6509610        4.8729910        2.5207420
 H       -1.6601630        3.4508010        2.1431790
 H       -2.4031180        4.9726860        2.6711360
 H       -1.8936710        7.0909810        1.2903380
 H       -1.4424830        6.9932870       -0.4206300
 H       -0.2335390        6.6828910        0.8480660
 H       -3.7596150        5.8059630        0.7293690
 H       -3.7139530        4.0829200        0.3576670
 H       -3.3319460        5.2654740       -0.9059140
 H        0.9635610        3.5052640        2.6227910
 C        3.5915570        1.1598790       -0.4956600
 C        5.0171870        0.9887180       -1.0065430
 O        2.6474610        0.6900610       -1.2000460
 H        5.6515830        1.8596170       -0.7955440
 H        5.4801600        0.1074160       -0.5320780
 H        4.9817890        0.8000400       -2.0859930
 C        5.1456270        2.0476710        4.2185440
 H        6.1486500        1.8811080        3.8013720
 H        4.9006390        1.1726080        4.8435350
 H        5.1962260        2.9203270        4.8862350
