37
Mol_000051_2D_DFT last geometry from G09 out file
 Ru       -0.2982390        0.0221020        0.3126970
 C        1.4303800       -0.1798830        0.8378000
 Cl       -0.0789090       -0.7485860       -1.9549820
 Cl       -1.5663300        0.1048380        2.3704690
 H        2.2363540        0.5610980        0.7863330
 H        1.7137960       -1.1918730        1.1942100
 C       -0.3058140        1.9140050       -0.0745570
 N        0.5590200        2.9385240        0.3139190
 N       -1.2411460        2.4819190       -0.9335270
 C        0.3441990        4.1741500       -0.5012740
 C        1.5200420        2.9722270        1.3837150
 C       -1.0644720        3.9551150       -1.0823490
 H        0.4099990        5.0650950        0.1349790
 H        1.1026570        4.2468750       -1.2969300
 H       -1.8459550        4.4855680       -0.5128210
 H       -1.1350670        4.2546570       -2.1348810
 C        1.1501670        2.6120320        2.7027100
 C        2.8290780        3.4529190        1.1284860
 C        2.0942810        2.7089150        3.7447650
 H        0.1464050        2.2458630        2.9028600
 C        3.3995410        3.1866870        3.4937170
 H        1.8019990        2.4188590        4.7552540
 C        3.7604150        3.5623830        2.1814670
 H        4.1222120        3.2671840        4.3070220
 H        4.7665240        3.9302540        1.9731410
 H        3.1257190        3.7232160        0.1145940
 C       -2.4256660        1.8537920       -1.4735450
 C       -3.4173830        1.3311600       -0.6108610
 C       -2.6224190        1.8305430       -2.8739850
 C       -4.5880090        0.7614530       -1.1558890
 H       -3.2775620        1.3655900        0.4677190
 C       -4.7870970        0.7368110       -2.5518580
 H       -5.3420470        0.3462500       -0.4854170
 C       -3.8015130        1.2774070       -3.4083490
 H       -5.6948840        0.2985020       -2.9693100
 H       -3.9412900        1.2483920       -4.4900990
 H       -1.8426860        2.2032560       -3.5380240
