67
Mol_000049_2D_DFT last geometry from G09 out file
 Ru       -0.0131000       -0.1685060        0.9270200
 C       -1.5262280       -0.9117770        0.2494240
 Cl       -0.6679470        0.4380660        3.1718260
 Cl        1.5666760       -1.3833740       -0.4187100
 H       -2.2062250       -0.5231170       -0.5117330
 H       -1.7501560       -1.9291660        0.6325570
 C       -0.0056780        1.6549870        0.2316780
 N        1.1089640        2.4728040        0.3840930
 N       -1.0502920        2.4439670       -0.2544230
 C        2.3069080        1.9863300        1.0549110
 C        0.8585980        3.9490450       -0.0325110
 C        3.4770230        1.4808820        0.4015840
 C        2.2876220        2.0022910        2.4717620
 C        4.5716600        1.0459820        1.1904460
 C        4.5316830        1.0792780        2.5948780
 H        5.4561440        0.6523850        0.6937540
 C        3.3764490        1.5548160        3.2410600
 H        3.3096860        1.5698870        4.3291500
 C       -0.7654790        3.9569430       -0.0053920
 C       -2.0064110        1.9323370       -1.2142820
 C       -3.4047650        1.7131180       -0.9927940
 C       -1.4847090        1.6183850       -2.4972200
 C       -4.2203710        1.2914770       -2.0757890
 C       -3.6842780        1.0305800       -3.3478900
 H       -5.2838850        1.1358700       -1.9055950
 C       -2.2977590        1.1713340       -3.5528470
 H       -1.8509950        0.9393640       -4.5202900
 H       -4.3385040        0.7016280       -4.1553900
 C        1.5162680        4.1515680       -1.4486980
 C        1.6088490        5.5594760       -2.1032440
 H        2.5454260        3.8091550       -1.3346120
 H        1.0549550        3.4590280       -2.1625660
 H        1.8462800        6.3572560       -1.3884440
 H        0.6988710        5.8531120       -2.6376500
 H        2.4233600        5.5392930       -2.8444060
 C        1.4667620        4.9579280        0.9961250
 C        2.9967100        5.2068740        1.0226760
 H        0.9881420        5.9247330        0.7912750
 H        1.1521830        4.6711240        2.0055800
 H        3.2027760        5.9892470        1.7707780
 H        3.3919760        5.5643660        0.0648940
 H        3.5747160        4.3248450        1.3133170
 C       -1.3293680        4.9004890       -1.1124030
 C       -2.8448540        5.1967320       -1.2231670
 H       -0.8270540        5.8629630       -0.9489250
 H       -0.9896490        4.5436460       -2.0911570
 H       -3.4159980        4.3561880       -1.6262020
 H       -2.9761670        6.0387160       -1.9218010
 H       -3.3053470        5.4866330       -0.2729860
 C       -1.4081960        4.2584740        1.4038410
 C       -1.5012880        5.7074370        1.9543410
 H       -2.4334520        3.8891890        1.3334680
 H       -0.9309740        3.6141310        2.1541410
 H       -1.8364640        6.4345040        1.2034140
 H       -0.5635580        6.0780360        2.3825310
 H       -2.2477140        5.7159140        2.7643040
 C        3.7219420        1.3929860       -1.0938440
 F        4.4831010        2.5358090       -1.5499170
 F        2.5932620        1.3424850       -1.9191270
 F        4.5187490        0.2844460       -1.4457910
 H        1.3871830        2.3473770        2.9693290
 H        5.3875270        0.7240940        3.1691530
 C       -4.1339050        1.8564850        0.3308470
 F       -4.7538960        3.1390890        0.4877180
 F       -3.3558610        1.6550180        1.4720970
 F       -5.2072780        0.9281360        0.4297070
 H       -0.4133460        1.7213050       -2.6531730
