79
Mol_000029_2D_DFT last geometry from G09 out file
 Ru        0.3279710       -0.1767120       -0.5814430
 C       -1.2880540       -0.8803740       -1.0082910
 Cl        0.5014130       -1.0086210        1.6787160
 Cl        1.1372790        0.1535920       -2.8584860
 H       -2.2682500       -0.4060120       -1.0712840
 H       -1.2485250       -1.9649030       -1.2533260
 C        0.0941210        1.7316870       -0.2623240
 N        1.2049770        2.4981220        0.1027690
 N       -0.9670260        2.5817770       -0.5062650
 C        2.2391650        2.0498630        1.0446980
 C        1.0039620        3.9737970       -0.3312170
 C        3.5252950        1.5394710        0.6771160
 C        1.9056080        2.1789670        2.4196370
 C        4.4251030        1.2363170        1.7359810
 C        4.0978830        1.3994240        3.0917620
 H        5.4112530        0.8477580        1.4833530
 C        2.8140070        1.8639420        3.4409930
 H        2.5185720        1.9631300        4.4863550
 C       -0.6050170        4.0718970       -0.2271160
 C       -2.2199620        2.1612210       -1.1196180
 C       -3.3820780        1.7927550       -0.3670000
 C       -2.2450460        2.1095940       -2.5372840
 C       -4.5467280        1.4525280       -1.1087540
 C       -4.5778800        1.4394820       -2.5150850
 H       -5.4501340        1.1750320       -0.5657720
 C       -3.4092120        1.7544530       -3.2393790
 H       -3.3983530        1.7146280       -4.3293060
 H       -5.4965980        1.1677750       -3.0377580
 C        1.5804000        4.0347700       -1.8011020
 C        1.7312870        5.3818900       -2.5587470
 H        2.5826780        3.6018870       -1.7211980
 H        1.0178830        3.3304350       -2.4275370
 H        2.1370870        6.1878450       -1.9339050
 H        0.7949890        5.7429720       -2.9985690
 H        2.4373250        5.2324200       -3.3913490
 C        1.7051400        5.0097600        0.5992710
 C        3.2425660        5.1852500        0.5592690
 H        1.2583090        5.9840830        0.3558250
 H        1.4300350        4.7972810        1.6369450
 H        3.6259010        5.4202780       -0.4404860
 H        3.7747870        4.3059670        0.9316720
 H        3.5091420        6.0297420        1.2152660
 C       -1.2035030        5.0451810       -1.2940160
 C       -2.7070920        5.4187950       -1.2526110
 H       -0.6348240        5.9812970       -1.2049280
 H       -0.9849730        4.6512360       -2.2918480
 H       -3.3659150        4.5602890       -1.4107300
 H       -2.9050300        6.1350000       -2.0665210
 H       -3.0038510        5.9076870       -0.3168010
 C       -1.1761350        4.4016720        1.2030380
 C       -1.1340780        5.8439100        1.7812780
 H       -2.2309080        4.1227340        1.1483780
 H       -0.7237440        3.7159170        1.9310860
 H       -1.3681430        6.6147750        1.0365820
 H       -0.1707330        6.1029320        2.2330600
 H       -1.8923370        5.9229950        2.5769190
 C        3.9934400        1.2560580       -0.7604640
 C        4.3695270       -0.2433320       -0.9505780
 C        5.1903600        2.1523570       -1.1924070
 H        3.1617320        1.4587750       -1.4423420
 H        4.5517060       -0.4467000       -2.0156770
 H        3.5621210       -0.9083790       -0.6177480
 H        5.2790120       -0.5111720       -0.3924280
 H        5.4556260        1.9367540       -2.2389210
 H        6.0828710        1.9618730       -0.5776600
 H        4.9567700        3.2224900       -1.1170160
 H        0.9045800        2.5098680        2.6857790
 H        4.8266770        1.1480800        3.8642610
 C       -3.4431470        1.6928870        1.1697070
 C       -3.6801720        0.2345920        1.6622590
 C       -4.5266790        2.6327740        1.7763960
 H       -2.4685040        1.9935720        1.5687750
 H       -4.6229740       -0.1816020        1.2772920
 H       -3.7337710        0.2218120        2.7617920
 H       -2.8582870       -0.4283330        1.3687700
 H       -4.4499200        2.6346280        2.8745880
 H       -5.5418180        2.2966560        1.5188210
 H       -4.4251610        3.6697990        1.4259700
 H       -1.3279950        2.3195530       -3.0828840
