62
Mol_000030_2D_DFT last geometry from G09 out file
 Ru        0.3623180        0.3328760       -0.0842560
 C        0.8097140        0.0671610        1.6705490
 Cl        2.5995280        0.5385190       -1.0587640
 Cl       -1.8621690       -0.6642780        0.2150210
 H        0.7526360        0.7648820        2.5141790
 H        1.1233660       -0.9605170        1.9521870
 C        0.0373490        2.2320330       -0.0876820
 N        0.7839800        3.2517350        0.4865870
 N       -0.8580590        2.8523270       -0.9730180
 C        0.4544240        4.5928240       -0.0688860
 C        1.7094600        3.2026820        1.5908810
 C       -0.4068070        4.2758950       -1.3229380
 H        1.3824300        5.1177380       -0.3253840
 H       -0.0995540        5.1794210        0.6756480
 C        0.4430180        4.2028420       -2.6344460
 C       -1.5589980        5.2970770       -1.5061230
 C        0.9401910        5.5852380       -3.1251030
 H        1.2910360        3.5198910       -2.4815410
 H       -0.1882660        3.7571110       -3.4195660
 C       -0.2196660        6.5967840       -3.2656670
 H        1.6957070        5.9895410       -2.4299510
 H        1.4544920        5.4556740       -4.0915480
 C       -1.0374500        6.6861470       -1.9573680
 H       -0.8838970        6.2815100       -4.0893720
 H        0.1721540        7.5908500       -3.5369790
 H       -1.9006610        7.3582310       -2.0937090
 H       -0.4176780        7.1365470       -1.1634410
 H       -2.1256430        5.4016030       -0.5704820
 H       -2.2578220        4.9263330       -2.2705680
 C        1.2678410        3.3470570        2.9445190
 C        3.0884830        3.0747290        1.3201300
 C        2.2342640        3.3513380        3.9838500
 C        3.6075450        3.2374600        3.6998280
 H        1.8957140        3.4417110        5.0139840
 C        4.0351410        3.0937940        2.3637260
 H        5.0952940        2.9835550        2.1315700
 C       -2.1385180        2.3327920       -1.3932060
 C       -2.3069500        1.4862780       -2.5270610
 C       -3.2882650        2.7592640       -0.6897330
 C       -3.6111750        1.1681410       -2.9807400
 C       -4.7454280        1.6356880       -2.2937410
 H       -3.7227420        0.5221370       -3.8497460
 C       -4.5806140        2.4127540       -1.1282050
 H       -5.4510270        2.7440780       -0.5597120
 H       -3.1562410        3.3538080        0.2125830
 H       -5.7432090        1.3704420       -2.6453860
 C       -0.1832320        3.4876190        3.3035440
 O       -0.4452370        2.9047000        4.5474850
 O       -1.0770490        4.0426210        2.6244920
 C       -1.8487240        2.9540060        5.0189770
 H       -2.1889390        3.9947090        5.1105360
 H       -2.5009880        2.4141730        4.3192610
 H       -1.8278550        2.4582850        5.9951990
 H        3.4017860        2.9176950        0.2912260
 H        4.3334750        3.2509200        4.5138840
 C       -1.1418350        0.7846360       -3.1236420
 O       -1.2622250        0.5702150       -4.4876690
 O       -0.1532760        0.3639290       -2.4732870
 C       -0.1916670       -0.2374250       -5.1279200
 H       -0.4536520       -0.2449320       -6.1909770
 H        0.7885560        0.2270230       -4.9598040
 H       -0.1878810       -1.2540780       -4.7120230
