89
Mol_000025_2D_DFT last geometry from G09 out file
 Ru       -0.1052370        0.2240420        0.1893390
 C       -1.2642220       -0.4906010       -1.0124050
 Cl       -1.4397250       -0.1056640        2.1730750
 Cl        1.9584270       -0.3377170       -0.9329670
 H       -1.9169340        0.0223100       -1.7215060
 H       -1.3132980       -1.6002760       -1.0061020
 C       -0.2485070        2.1544200       -0.1058590
 N        0.5456310        3.0810410        0.6114300
 N       -1.0560820        2.8949950       -0.9875680
 C        0.4438120        4.4309850       -0.0548220
 C        1.6370900        2.7570200        1.5468200
 C        0.6680840        5.7381920        0.7197920
 C       -0.9679920        4.3615860       -0.6342130
 H        1.1549440        4.4375180       -0.8950140
 C        0.4393670        6.9071850       -0.2827850
 H        1.6870660        5.7866400        1.1306960
 H       -0.0309650        5.8335630        1.5602010
 C       -0.9322080        6.8238730       -1.0076130
 H        1.2485110        6.9067730       -1.0334260
 H        0.5128370        7.8656510        0.2555640
 C       -1.1754150        5.4501420       -1.6990030
 H       -1.7400510        7.0117900       -0.2793530
 H       -0.9990470        7.6246200       -1.7614510
 H       -2.1922870        5.4123510       -2.1151220
 H       -0.4720770        5.3270670       -2.5331730
 H       -1.6993900        4.5515480        0.1685590
 C        1.4374850        2.6734280        2.9763290
 C        2.9593610        2.5885690        0.9820610
 C        2.5579440        2.2392230        3.7422750
 C        3.8102810        1.9632650        3.1879990
 H        2.4484240        2.1299610        4.8168180
 C        4.0174840        2.1773750        1.8183810
 H        5.0053030        2.0115490        1.3989270
 C       -2.1584770        2.4484560       -1.8385990
 C       -1.9938970        2.2029250       -3.2529560
 C       -3.4584640        2.3470390       -1.2261290
 C       -3.1713840        1.8639340       -3.9785320
 C       -4.4355860        1.7426430       -3.3882450
 H       -3.0954900        1.6762600       -5.0463160
 C       -4.5717520        1.9763750       -2.0141550
 H       -5.5459560        1.8657240       -1.5365380
 C        0.2250180        3.1340410        3.8776700
 C       -1.1225200        3.4202890        3.1699130
 C       -0.0904790        2.0661430        4.9822770
 C        0.6743510        4.4604400        4.5886100
 H       -1.5191390        2.5194580        2.6993420
 H       -1.0460110        4.2132530        2.4247160
 H       -1.8485310        3.7510360        3.9281350
 H        0.7086230        1.9632960        5.7275400
 H       -0.2795580        1.0839660        4.5348330
 H       -0.9951900        2.3704380        5.5295760
 H       -0.1239910        4.8088040        5.2622030
 H        0.8779580        5.2584180        3.8605120
 H        1.5828480        4.3172320        5.1887790
 C        3.2724030        2.9069140       -0.4859850
 C        4.6375690        2.4289600       -1.0393360
 H        3.2399970        4.0044310       -0.6105190
 H        2.4876830        2.4918620       -1.1237730
 C        4.8087560        2.7578810       -2.5392990
 H        4.7311350        1.3421360       -0.8963390
 H        5.4635020        2.9042570       -0.4843810
 H        4.7246000        3.8409260       -2.7299330
 H        5.7982890        2.4335800       -2.8978300
 H        4.0494690        2.2454320       -3.1484780
 H        4.6261790        1.6160900        3.8241130
 C       -0.6983240        2.2250140       -4.1515630
 C       -0.8798190        3.3120360       -5.2663470
 C        0.6512730        2.5130020       -3.4489340
 C       -0.5251800        0.8197490       -4.8293220
 H        0.0129430        3.3348950       -5.9095580
 H       -1.0066840        4.3121250       -4.8270570
 H       -1.7469080        3.1203000       -5.9116910
 H        0.8768800        1.7703040       -2.6817730
 H        0.6890240        3.5108940       -3.0053900
 H        1.4509500        2.4608830       -4.2030110
 H        0.3523950        0.8393220       -5.4928160
 H       -1.3896470        0.5213450       -5.4355040
 H       -0.3528720        0.0414330       -4.0731070
 C       -3.7455480        2.5859880        0.2568800
 C       -4.6712440        3.8101990        0.5286430
 H       -2.8267180        2.6862480        0.8348880
 H       -4.2454970        1.6878480        0.6547360
 C       -5.0927060        3.9327210        2.0099360
 H       -5.5770250        3.7318970       -0.0933390
 H       -4.1657400        4.7379630        0.2112110
 H       -4.2227280        4.0522250        2.6716580
 H       -5.7519430        4.8024890        2.1592580
 H       -5.6401380        3.0362050        2.3416820
 H       -5.2984070        1.4621550       -3.9943380
