70
Mol_000023_2D_DFT last geometry from G09 out file
 Ru       -0.1335380       -0.0048720        0.5973580
 C       -1.3600280       -0.7408750       -0.5256350
 Cl       -1.4121750       -0.0906410        2.6312570
 Cl        1.8567810       -0.6869470       -0.5681140
 H       -1.9807540       -0.2496150       -1.2771320
 H       -1.4718390       -1.8403890       -0.4212420
 C       -0.2254540        1.8723150        0.2021440
 N        0.6608710        2.7949570        0.7869840
 N       -1.0971770        2.6202390       -0.6312040
 C        0.4111620        4.1850630        0.3431530
 C        1.9293240        2.4439090        1.4451720
 C       -0.7370960        4.0054770       -0.6820760
 H        1.2867550        4.5897430       -0.1785980
 C        3.1085170        2.3966920        0.6438690
 C        1.9621150        2.2387680        2.8545590
 C        4.3425980        2.0675590        1.2691010
 C        4.3792330        1.7526040        2.6587140
 C        3.2047100        1.8760330        3.4552860
 C       -2.2717010        2.1768630       -1.3865170
 C       -3.5417480        2.2027860       -0.7442190
 C       -2.1075600        1.8137330       -2.7543030
 C       -4.6894810        1.8405730       -1.5092210
 C       -4.5502690        1.4621570       -2.8770180
 C       -3.2704720        1.4780160       -3.5065570
 C        0.1130690        5.2221010        1.4634360
 F       -1.0100690        4.9317370        2.2526060
 F        1.2137550        5.3504910        2.3350070
 F       -0.0803170        6.4992570        0.8952730
 F       -0.2604190        4.4180400       -1.9915360
 F       -1.8580370        4.8614540       -0.4784800
 C        3.0824030        2.6661350       -0.8547770
 H        2.0731080        2.6674200       -1.2698910
 H        3.6337470        1.8891970       -1.3974680
 H        3.5535030        3.6333740       -1.0993510
 C        0.7321770        2.4341480        3.7259280
 H        0.5297900        1.5495510        4.3414290
 H       -0.1687660        2.6187420        3.1428200
 H        0.8751240        3.2897390        4.4038470
 C        5.6214820        2.0237150        0.4399770
 H        6.5067170        2.2614580        1.0411600
 H        5.5967840        2.7389230       -0.3903230
 H        5.7803760        1.0236650        0.0002080
 C        5.6854620        1.2822560        3.2908440
 H        6.2620000        0.6548200        2.5997480
 H        5.5118200        0.6883630        4.1940880
 H        6.3307420        2.1311980        3.5767450
 C        3.2830610        1.6288150        4.9588270
 H        2.4269210        2.0472800        5.4946550
 H        4.1871340        2.0750760        5.3949870
 H        3.3093710        0.5493320        5.1866840
 C       -3.6911070        2.5862220        0.7205400
 H       -2.7323400        2.7001310        1.2258510
 H       -4.2517980        1.8199490        1.2729430
 H       -4.2319190        3.5392880        0.8252790
 C       -0.7313410        1.7283630       -3.4005370
 H       -0.5645160        2.5588810       -4.1031180
 H       -0.6191630        0.7909030       -3.9627330
 H        0.0732750        1.7587270       -2.6642160
 C       -6.0744300        1.8687420       -0.8706480
 H       -6.8214260        2.3013590       -1.5498510
 H       -6.0948610        2.4599300        0.0491030
 H       -6.4211120        0.8537580       -0.6105130
 C       -5.7796350        1.0343890       -3.6723210
 H       -6.5356990        0.5650170       -3.0327150
 H       -5.5277420        0.3124750       -4.4575790
 H       -6.2616010        1.8967400       -4.1652810
 C       -3.1476180        1.1398710       -4.9892380
 H       -2.2252010        1.5350710       -5.4258960
 H       -3.9817360        1.5608630       -5.5656430
 H       -3.1497430        0.0498870       -5.1641320
