55
Mol_000024_2D_DFT last geometry from G09 out file
 Ru        0.0581500       -0.1664160        0.4774440
 C       -1.3407410       -0.9370510       -0.3968180
 Cl       -0.7644920       -0.0706670        2.7244590
 Cl        1.8215980       -0.8205540       -0.9943730
 H       -2.0532340       -0.4895680       -1.0922480
 H       -1.4388310       -2.0268330       -0.2153200
 C       -0.1129040        1.6775410        0.0670620
 N        0.9008060        2.6005590        0.4481770
 N       -1.1443640        2.4547770       -0.5127070
 C        2.1542810        2.2701320        1.1248750
 C        0.4769360        3.9614010        0.3139310
 C        3.3779390        2.2004700        0.4014170
 C        2.1069410        2.0737540        2.5250080
 C        4.5381490        1.8773760        1.1481460
 C        4.4956650        1.6636130        2.5385800
 H        5.4886290        1.7940660        0.6246230
 C        3.2740010        1.7647160        3.2388600
 H        3.2298430        1.6122640        4.3154460
 C       -0.7951950        3.8478890       -0.5908530
 C       -2.3772740        2.0062170       -1.1444910
 C       -3.5835050        1.8833490       -0.4009210
 C       -2.3353590        1.7586380       -2.5371690
 C       -4.7327390        1.4633810       -1.1187830
 C       -4.6960420        1.2078420       -2.5025360
 H       -5.6702940        1.3441410       -0.5785440
 C       -3.4907370        1.3588090       -3.2246360
 H       -3.4537470        1.1740780       -4.2965340
 C       -5.9348320        0.7130080       -3.2100510
 F       -5.9941960        1.1227110       -4.5602190
 F       -7.1308790        1.1495490       -2.5996750
 F       -6.0038460       -0.7102080       -3.2310960
 F        1.4590660        4.8146560       -0.2267580
 F        0.1404530        4.5568690        1.5778480
 F       -0.4913020        4.2582870       -1.9332980
 F       -1.8389940        4.7046580       -0.1861600
 C        3.5114470        2.4292600       -1.0997160
 C        4.4027050        3.6418650       -1.4799140
 H        2.5240540        2.5542050       -1.5573890
 H        3.9393790        1.5182740       -1.5456750
 H        3.9959970        4.5813020       -1.0824160
 H        4.4556460        3.7305890       -2.5755190
 H        5.4309910        3.5305660       -1.1065350
 H        1.1584920        2.1549290        3.0484650
 C        5.7515370        1.2722030        3.2792780
 F        5.7720850        1.7493900        4.6100510
 F        6.9291160        1.7512540        2.6612320
 F        5.9058390       -0.1395840        3.3703760
 C       -3.7042820        2.1559020        1.0938340
 C       -4.6266160        3.3553270        1.4421030
 H       -2.7174690        2.3236060        1.5363660
 H       -4.1038560        1.2510990        1.5802880
 H       -5.6542100        3.2050100        1.0803850
 H       -4.2467670        4.2913110        1.0112000
 H       -4.6723150        3.4773090        2.5344920
 H       -1.3959210        1.8758340       -3.0742910
