43
Mol_000001_2D_DFT last geometry from G09 out file
 Ru        0.0493130       -0.3183580        0.4887980
 C        1.7945520       -0.4811660       -0.0040300
 Cl       -0.9663880       -1.4827330       -1.3465190
 Cl        0.0601790       -0.1411790        2.8829610
 H        2.3861350        0.2415370       -0.5747370
 H        2.2818940       -1.4498110        0.2234860
 C       -0.2000150        1.5760010        0.1733510
 N        0.6981560        2.6338360        0.3690280
 N       -1.4327410        2.1743250       -0.1236240
 C       -0.0161740        3.9462360        0.5008190
 C        2.0780040        2.5966200        0.7820830
 C       -1.3277780        3.6663620       -0.2352890
 H        0.5597010        4.7593230        0.0513010
 H       -0.1826460        4.1630000        1.5687540
 H       -1.2759460        3.9553810       -1.2977950
 C        2.4025420        2.3186420        2.1276810
 C        3.1264890        2.9502390       -0.1215690
 C        3.7337870        2.3645940        2.5845210
 C        4.7488710        2.7136650        1.6790410
 H        3.9651190        2.1324730        3.6226820
 C        4.4621870        3.0080790        0.3358090
 H        5.2644620        3.2704410       -0.3482370
 C       -2.5749760        1.5655560       -0.7691540
 C       -2.4961790        1.2959330       -2.1530960
 C       -3.8123400        1.3544620       -0.0958090
 C       -3.6036170        0.8126070       -2.8726360
 C       -4.8097740        0.6021660       -2.1861310
 H       -3.5185140        0.5940560       -3.9353400
 C       -4.9267100        0.8634220       -0.8117140
 H       -5.8691330        0.6882900       -0.3007470
 H       -1.5487780        1.4462220       -2.6668430
 C       -3.9900270        1.6448850        1.3796240
 F       -5.2785470        1.3127570        1.8491810
 F       -3.8238760        3.0317670        1.6861440
 F       -3.0794480        0.9532550        2.1993570
 H       -2.1895060        4.1521140        0.2311770
 Cl       -6.2512990       -0.0197630       -3.0836250
 H        1.6080040        2.0354010        2.8127430
 C        2.8671720        3.2665540       -1.5802750
 F        2.1174770        2.2694480       -2.2513050
 F        4.0549190        3.4211210       -2.3237370
 F        2.1429780        4.4823900       -1.7671600
 Cl        6.4651730        2.7903490        2.2431300
