69
Mol_000015_2D_DFT last geometry from G09 out file
 Ru       -0.4142960       -0.3294600        0.1254640
 C       -0.4715580       -0.8057240       -1.6410950
 Cl       -2.7440240       -0.7123150        0.7264710
 Cl        1.9726560       -0.9679310        0.2663290
 H       -0.3105590       -0.1593870       -2.5107720
 H       -0.5818380       -1.8812060       -1.8875220
 C       -0.3332860        1.5851410       -0.1019920
 N        0.6612430        2.4126000        0.4571160
 N       -1.2228310        2.4448480       -0.7575910
 C        1.8419280        2.1251910        1.2438240
 C        0.3237430        3.8675230        0.3136660
 C        3.1041050        2.5961410        0.7620320
 C        1.7678950        1.5903620        2.5713150
 C        4.2241400        2.5839120        1.6307850
 C        4.1339560        2.1049030        2.9483360
 H        5.1840390        2.9268510        1.2450170
 C        2.9115740        1.5943010        3.4077960
 H        2.8295920        1.1787730        4.4093400
 C       -0.7221820        3.8528200       -0.8030710
 H       -1.5367870        4.5595840       -0.6193240
 H       -0.2889900        4.0469890       -1.7926880
 C       -2.5716870        2.1966850       -1.2329000
 C       -2.8446010        1.6797590       -2.5363340
 C       -3.6671050        2.5758480       -0.3934020
 C       -4.1796200        1.3729830       -2.9058830
 C       -5.2483960        1.6673020       -2.0479820
 H       -4.3550860        0.9244890       -3.8822200
 C       -4.9895980        2.3056570       -0.8237830
 H       -5.8153780        2.5731050       -0.1644990
 C       -1.8649580        1.4945490       -3.6591550
 O       -0.8427490        2.4488400       -3.6646040
 O       -1.9915200        0.6545340       -4.5796440
 C        0.0615720        2.4158280       -4.8396680
 H        0.7797030        3.2204430       -4.6568750
 H        0.5685470        1.4444650       -4.9101230
 H       -0.5101720        2.5928960       -5.7607670
 C       -3.5253690        3.3204700        0.9095980
 C       -3.9923000        4.6619210        0.9706950
 C       -3.0255490        2.7240950        2.0934600
 C       -3.9425540        5.3955980        2.1744710
 H       -4.3956500        5.1315300        0.0714810
 C       -3.4340410        4.7952070        3.3464290
 H       -4.3043510        6.4253430        2.1969230
 C       -2.9829550        3.4585790        3.2984500
 H       -3.3994210        5.3561190        4.2822060
 H       -2.6065720        2.9822270        4.2055550
 H       -2.7087050        1.6849170        2.0714990
 H       -0.0802820        4.2430860        1.2673700
 H        1.2070200        4.4514910        0.0431260
 H       -6.2708320        1.4255310       -2.3395160
 C        3.3530590        3.0488290       -0.6487270
 C        3.9103260        4.3295090       -0.9065940
 C        3.1669120        2.1565920       -1.7364890
 C        4.2667400        4.7147080       -2.2158740
 H        4.0669830        5.0257430       -0.0802560
 C        4.0897440        3.8154100       -3.2896880
 H        4.6906800        5.7048310       -2.3934160
 C        3.5431160        2.5371800       -3.0411460
 H        4.3849290        4.1021780       -4.3007920
 H        3.4264230        1.8251480       -3.8603730
 H        2.7734130        1.1594820       -1.5482020
 C        0.5584380        0.9014330        3.0944820
 O        0.4245450        1.0129280        4.4704520
 O       -0.2557140        0.2161560        2.4258960
 C       -0.6367350        0.1900080        5.1067750
 H       -0.5790610        0.4468920        6.1695340
 H       -1.6200500        0.4363810        4.6879660
 H       -0.4323890       -0.8767940        4.9437170
 H        5.0113310        2.1000730        3.5953940
