76
Mol_000007_2D_DFT last geometry from G09 out file
 Ru       -0.0213760       -0.0986770        0.4734920
 C       -1.3731430       -0.8480650       -0.4801920
 Cl       -0.9476450       -0.2882650        2.6940220
 Cl        1.7878340       -0.5660920       -1.0614400
 H       -2.1223650       -0.3620710       -1.1089180
 H       -1.4223280       -1.9566260       -0.4146400
 C       -0.2153340        1.8220580        0.1719370
 N        0.7171510        2.7235510        0.6692400
 N       -1.1749340        2.5603840       -0.5188900
 C        0.3988470        4.1380610        0.3404820
 C        1.8653900        2.4488370        1.5243430
 C       -0.8349680        4.0362700       -0.5848990
 H        0.1615280        4.6937860        1.2548800
 H        1.2528410        4.6152720       -0.1588580
 H       -0.5620220        4.2646340       -1.6259360
 C        3.1508550        2.3079340        0.9232350
 C        1.6967560        2.4590070        2.9406870
 C        4.2646410        2.0076390        1.7581760
 C        4.0840710        1.8644820        3.1647630
 C        2.8208490        2.1489940        3.7602280
 C       -2.2740000        2.0821060       -1.3387100
 C       -3.5536620        1.8783180       -0.7445280
 C       -2.0565840        1.9009680       -2.7372440
 C       -4.6409500        1.4810800       -1.5797190
 C       -4.4411160        1.3033850       -2.9805300
 C       -3.1586900        1.5328660       -3.5610210
 C       -6.0232340        1.2419180       -0.9776720
 H       -6.8042480        1.7832110       -1.5321780
 H       -6.0839430        1.5629000        0.0651390
 H       -6.2934140        0.1727810       -1.0005310
 C       -5.5943400        0.8562180       -3.8742330
 H       -6.4001290        0.3805230       -3.3069100
 H       -5.2610930        0.1339290       -4.6311810
 H       -6.0385450        1.7086310       -4.4175760
 C       -2.9679890        1.3627670       -5.0652590
 H       -2.0886390        1.9003860       -5.4345710
 H       -3.8352790        1.7337490       -5.6273540
 H       -2.8360830        0.3016380       -5.3400190
 C       -1.9784310        4.9830930       -0.1987130
 C       -2.7678770        5.6001730       -1.1975430
 N       -2.1803650        5.2220340        1.1309730
 C       -3.7975360        6.4848040       -0.8148220
 H       -2.5845450        5.3881940       -2.2507690
 C       -4.0109680        6.7301140        0.5576190
 H       -4.4163740        6.9712870       -1.5700460
 C       -3.1764230        6.0750760        1.4899850
 H       -4.7928930        7.4088280        0.8989940
 H       -3.3019670        6.2357580        2.5626660
 C        3.3502730        2.5049060       -0.5725710
 H        3.8685620        1.6518180       -1.0262880
 H        3.9530950        3.4080530       -0.7685530
 H        2.3998970        2.6065560       -1.0997950
 C        0.3665320        2.8326600        3.5789100
 H       -0.4249540        2.9728740        2.8419750
 H        0.4650910        3.7723510        4.1478170
 H        0.0197560        2.0563500        4.2711140
 C        5.6496230        1.8223280        1.1458980
 H        6.4416960        2.2020450        1.8044020
 H        5.7493910        2.3421400        0.1873810
 H        5.8637090        0.7560600        0.9560300
 C        5.2537250        1.4208550        4.0387610
 H        5.9344950        0.7556040        3.4944740
 H        4.9111020        0.8747640        4.9253270
 H        5.8511310        2.2788070        4.3948780
 C        2.6728030        2.1098750        5.2781080
 H        1.8103940        2.6879340        5.6239170
 H        3.5595580        2.5129450        5.7854550
 H        2.5305060        1.0762190        5.6384920
 C       -3.7515210        2.0338440        0.7562990
 H       -2.8295580        2.3207420        1.2611660
 H       -4.0861130        1.0890300        1.2095180
 H       -4.5106790        2.7966100        0.9860310
 C       -0.6660840        2.0468900       -3.3436970
 H       -0.4171450        1.1764930       -3.9664390
 H        0.1099630        2.1101260       -2.5788450
 H       -0.5885760        2.9376730       -3.9896230
