90
M00000404_2D_DFT last geometry from G09 out file
 Ru        0.0193730       -0.6490170        0.2109450
 C        0.7279210       -0.8434850        1.8749440
 Cl        1.8835080       -1.0388620       -1.2677570
 Cl       -2.1654140       -1.5903070        0.6142900
 H        0.8705890       -0.0663140        2.6301150
 H        1.0094670       -1.8766320        2.1651360
 C       -0.1131610        1.3075970        0.0822640
 N        0.7286550        2.2899470        0.6188270
 N       -1.0645710        1.9605270       -0.7158750
 C        0.2709400        3.6600180        0.2491620
 C        1.7432050        2.1717330        1.6652280
 C       -0.7586210        3.4632920       -0.8947830
 H        1.1252530        4.2728090       -0.0545710
 H       -0.1913620        4.1522710        1.1135120
 C       -0.1570710        3.7343240       -2.3102260
 C       -1.9963310        4.3845250       -0.7125200
 C        0.1643200        5.2274340       -2.5739360
 H        0.7463900        3.1319430       -2.4578810
 H       -0.8930490        3.4033610       -3.0542770
 C       -1.0646830        6.1322490       -2.3404830
 H        0.9928540        5.5651030       -1.9278380
 H        0.5255890        5.3316240       -3.6106400
 C       -1.6622150        5.8812240       -0.9389640
 H       -1.8296470        5.9175040       -3.1069030
 H       -0.7867120        7.1927060       -2.4564890
 H       -2.5854040        6.4698010       -0.8076340
 H       -0.9577720        6.2397260       -0.1683320
 H       -2.4268170        4.2356670        0.2827600
 H       -2.7673420        4.0887620       -1.4374800
 C        1.3444700        2.4014940        3.0244220
 C        3.1294810        1.8517230        1.3665150
 C        2.2757830        2.2203800        4.0743950
 C        3.5982560        1.8338320        3.8002440
 H        1.9515940        2.3634630        5.1054130
 C        4.0157470        1.6683700        2.4768030
 H        5.0585210        1.4308430        2.2815300
 C       -2.1867290        1.3234310       -1.4110170
 C       -1.9864230        0.6568020       -2.6646090
 C       -3.5266980        1.4273900       -0.8618030
 C       -3.1048130        0.1077870       -3.3423280
 C       -4.4025030        0.2345260       -2.8324960
 H       -2.9459240       -0.4299060       -4.2759870
 C       -4.6061830        0.8879890       -1.6092020
 H       -5.6119980        0.9352270       -1.1979440
 N       -3.8286840        2.0939330        0.3680790
 C       -5.1493060        2.7341440        0.5002560
 C       -3.3527660        1.5426260        1.6526120
 H       -5.9635670        2.0328630        0.7779810
 H       -5.4305570        3.2381290       -0.4332910
 H       -5.0927280        3.4945390        1.2957510
 H       -4.0279920        0.7511930        2.0315790
 H       -3.3116660        2.3465310        2.4037130
 H       -2.3677640        1.0947990        1.5444820
 H       -5.2502470       -0.1993530       -3.3659310
 C       -0.0753890        2.7852340        3.4486990
 C       -0.1803970        4.2187930        4.0509340
 H       -0.7814180        2.6849440        2.6214990
 H       -0.4119220        2.0724100        4.2207790
 C       -1.6089700        4.5843810        4.5215560
 H        0.5100730        4.3053910        4.9049290
 H        0.1620610        4.9605590        3.3095830
 C       -1.6995640        5.9905690        5.1553630
 H       -1.9544590        3.8327410        5.2531630
 H       -2.3062710        4.5265710        3.6674910
 H       -1.3956470        6.7724000        4.4407920
 H       -1.0454460        6.0731490        6.0379960
 H       -2.7279770        6.2151340        5.4796080
 N        3.6744810        1.6781890        0.0867130
 C        3.3076380        2.4647510       -1.0934370
 C        4.8242970        0.7831160       -0.1216600
 H        2.6808830        1.8937450       -1.7940030
 H        4.2266300        2.7661010       -1.6248490
 H        2.7943840        3.3840710       -0.8056660
 H        4.7668490        0.3669600       -1.1359980
 H        4.7881900       -0.0642690        0.5728150
 H        5.7984120        1.2996670       -0.0112770
 H        4.3109570        1.6870800        4.6140080
 C       -0.6235020        0.4526040       -3.3294720
 C       -0.5201360        0.9254350       -4.8081140
 H        0.1697950        0.9282360       -2.7506840
 H       -0.3924620       -0.6244550       -3.3095440
 C        0.8915740        0.7023870       -5.4042040
 H       -1.2507850        0.3853970       -5.4307520
 H       -0.7840620        1.9930460       -4.8843810
 C        1.0042640        1.1344510       -6.8830940
 H        1.1596350       -0.3642580       -5.3131390
 H        1.6365180        1.2547870       -4.8052690
 H        2.0206920        0.9615090       -7.2709760
 H        0.7762470        2.2057060       -7.0073420
 H        0.3041330        0.5688810       -7.5189310
