85
Mol_000097_2D_DFT last geometry from G09 out file
Ru        0.3375730        0.5257450        0.4806930
C       -0.9059630       -0.5907050       -0.2268880
Cl       -0.4266090        0.6980550        2.7739600
Cl        2.0024510        0.2266630       -1.2649630
H       -1.7466990       -0.3747740       -0.8895290
H       -0.7371750       -1.6621260        0.0210970
C       -0.2249480        2.3256650        0.0030150
N        0.6312930        3.3902890        0.2380850
N       -1.3927400        2.8392770       -0.5279310
C        1.8636680        3.2754870        0.9988450
C        0.1414600        4.6726700       -0.4550720
C        3.1045700        3.0147980        0.3708210
C        1.8324440        3.4521830        2.4030790
C        4.2840440        2.9408650        1.1362790
C        4.2682430        3.1176170        2.5421090
H        5.2273460        2.7265550        0.6302540
C        3.0177560        3.3738770        3.1580840
H        2.9650980        3.5020260        4.2409590
C       -1.4416510        4.3808890       -0.3850330
C       -2.5205630        2.0505740       -0.9641560
C       -3.4859680        1.5783240       -0.0432070
C       -2.6739960        1.7395930       -2.3350850
C       -4.5937620        0.8354350       -0.4962660
C       -4.7709150        0.5305990       -1.8698500
H       -5.3249410        0.4795140        0.2323730
C       -3.7846280        0.9934970       -2.7777170
H       -3.8818360        0.7656920       -3.8411220
C       -5.9503020       -0.3077670       -2.3455100
C       -5.6656530       -1.8391740       -2.3257910
H       -6.8295920       -0.1067350       -1.7118770
H       -6.2262830       -0.0152750       -3.3717960
C       -6.8690470       -2.6851560       -2.8056150
H       -4.7895350       -2.0528300       -2.9613240
H       -5.3885180       -2.1424810       -1.3019860
C       -6.5917750       -4.2048400       -2.7865410
H       -7.1459420       -2.3778990       -3.8297340
H       -7.7450900       -2.4665230       -2.1695480
H       -7.4692900       -4.7728740       -3.1336540
H       -6.3479230       -4.5535380       -1.7703600
H       -5.7445240       -4.4646260       -3.4410590
C        0.7645140        4.6182110       -1.9067650
C        0.6205910        5.8112770       -2.8894200
H        1.8392620        4.4633960       -1.7465110
H        0.4086200        3.7022710       -2.4000530
H        0.8055200        6.7838960       -2.4160070
H       -0.3615640        5.8604630       -3.3726270
H        1.3669740        5.6947510       -3.6915300
C        0.5490890        5.9700890        0.3087220
C        2.0036620        6.4965670        0.2148820
H       -0.1160070        6.7692490       -0.0500630
H        0.3186160        5.8319000        1.3708050
H        2.3235580        6.7026580       -0.8134560
H        2.7299550        5.8119910        0.6624710
H        2.0635540        7.4467820        0.7699940
C       -2.2336130        5.0708870       -1.5388340
C       -3.7836440        5.0652750       -1.5258750
H       -1.9103530        6.1218770       -1.5556690
H       -1.9067020        4.6362260       -2.4902900
H       -4.2079270        5.5485640       -0.6379030
H       -4.2070100        4.0589890       -1.5953870
H       -4.1385080        5.6307960       -2.4028430
C       -2.1065570        4.6434780        1.0235470
C       -2.4521650        6.0828780        1.4935600
H       -3.0504360        4.0840830        0.9991260
H       -1.4925790        4.1535600        1.7921350
H       -3.1939400        6.0171290        2.3055930
H       -2.8939170        6.7017590        0.7024180
H       -1.5892910        6.6261100        1.8939880
H        3.1429800        2.8341990       -0.6993560
H        0.8806330        3.6205090        2.9024130
C        5.5395220        2.9777080        3.3684320
C        5.7975680        1.5176620        3.8465100
H        6.4083320        3.3126980        2.7782770
H        5.4849110        3.6326030        4.2536610
C        7.0895490        1.3737400        4.6853500
H        4.9330640        1.1735600        4.4387430
H        5.8534060        0.8546000        2.9668760
C        7.3482890       -0.0732950        5.1609370
H        7.0310730        2.0410520        5.5637160
H        7.9523930        1.7212560        4.0895930
H        8.2745680       -0.1376710        5.7537790
H        7.4482300       -0.7617760        4.3067460
H        6.5214170       -0.4402020        5.7896750
H       -3.3505570        1.7603690        1.0212320
H       -1.9174610        2.0685050       -3.0472270
