73
Mol_000095_2D_DFT last geometry from G09 out file
Ru       -0.2549120        0.1112110        0.5671670
C       -1.2628890       -0.5857450       -0.7755090
Cl       -1.8096260        0.2229550        2.3824360
Cl        1.9074700       -0.7191470       -0.0983760
H       -1.6241920       -0.1000180       -1.6847980
H       -1.4990090       -1.6645250       -0.6666870
C       -0.2098640        2.0148640        0.1521330
N        0.7708820        2.8711350        0.6785310
N       -1.0925140        2.8103720       -0.5761570
C        0.6416570        4.2921100        0.1873710
C        2.0409930        2.4668740        1.2619750
C        0.7030480        5.3816060        1.2941410
C       -0.6858950        4.2674870       -0.6260340
H        1.4756570        4.4878430       -0.4989890
C       -0.6018030        5.5670180        2.0373580
H        1.5377890        5.1646110        1.9719580
H        0.9764870        6.3236290        0.7820980
C       -1.7684520        5.5172440        1.3550480
H       -0.5836680        5.7311100        3.1154920
C       -1.7578650        5.2892900       -0.1407700
H       -2.7279050        5.6279710        1.8594730
H       -2.7477970        4.9896090       -0.5022930
H       -1.5201660        6.2415600       -0.6526230
H       -0.4708760        4.5062740       -1.6743870
C        2.1950070        2.2131560        2.6612100
C        3.2326940        2.4407860        0.4604180
C        3.4860770        1.8809340        3.1537410
C        4.6415750        1.8200350        2.3541280
H        3.5860500        1.6659110        4.2162990
C        4.4967750        2.1321620        0.9891190
H        5.3531620        2.1210460        0.3192160
C       -2.1673970        2.3862630       -1.4520920
C       -1.9369890        2.2854730       -2.8654920
C       -3.4864710        2.0875000       -0.9872640
C       -3.0171230        1.9398610       -3.7170160
C       -4.3132700        1.6485710       -3.2495740
H       -2.8274370        1.8787000       -4.7878260
C       -4.5250750        1.7104080       -1.8581330
H       -5.4962380        1.4688200       -1.4313600
C        1.0567790        2.3023290        3.6936930
C        1.2650760        3.5032210        4.6650400
C        0.9176790        0.9952420        4.5276450
H        0.1115940        2.4604870        3.1630690
H        1.3675560        4.4582910        4.1356080
H        2.1623840        3.3674870        5.2872490
H        0.3998910        3.5814390        5.3403320
H        1.7625140        0.8604440        5.2197620
H        0.8472760        0.1057720        3.8912860
H       -0.0020850        1.0415400        5.1267690
N        3.2505780        2.7215470       -1.0031560
O        2.2317670        2.4254180       -1.7238500
O        4.3217390        3.2512360       -1.4925420
C        5.9885620        1.4172590        2.9244080
H        6.0330880        1.5749670        4.0106770
H        6.8104710        1.9829320        2.4624980
H        6.1838520        0.3481420        2.7380220
C       -0.5589960        2.5013210       -3.5165010
C       -0.5669190        3.7081990       -4.5001820
C       -0.0382460        1.2207750       -4.2314600
H        0.1685190        2.7160340       -2.7326960
H       -0.9392400        4.6284050       -4.0246080
H       -1.1950820        3.5150750       -5.3823970
H        0.4560450        3.9008770       -4.8563970
H       -0.6878850        0.9132750       -5.0643590
H        0.0531710        0.3798320       -3.5317180
H        0.9644430        1.4152340       -4.6387570
N       -3.9156170        2.1543530        0.4475880
O       -3.4688460        3.1023930        1.1815560
O       -4.7692210        1.2805710        0.8429840
C       -5.4450370        1.2865600       -4.1940510
H       -6.0124820        0.4188040       -3.8263400
H       -5.0734050        1.0473740       -5.1993250
H       -6.1588120        2.1209010       -4.2932810
