70
Mol_000096_2D_DFT last geometry from G09 out file
Ru       -0.5948790       -0.1787070       -0.0648190
C        1.0042570       -0.6608140        0.6491150
Cl       -0.0959180       -0.3953310       -2.4144990
Cl       -2.0271480       -0.7239780        1.8085820
H        1.7785370       -0.0249310        1.0864340
H        1.2088450       -1.7527510        0.6372250
C       -0.5982070        1.7617360        0.1125720
N        0.2646330        2.6212580        0.7795660
N       -1.6445340        2.5332600       -0.3985350
C       -0.2290310        4.0328860        0.7679680
C        1.6949940        2.4485550        0.9837580
C       -1.6207460        3.9561870        0.0947440
H        0.4677800        4.6613850        0.1937400
H       -0.3041490        4.4169040        1.7889280
H       -1.6760380        4.6262300       -0.7715760
C        2.3510850        2.4602950        2.2592660
C        2.4482910        2.3828010       -0.2215350
C        3.7776520        2.4587960        2.2070140
C        4.5208020        2.4026380        1.0156750
H        4.3347090        2.4936240        3.1396060
C        3.8499330        2.3443110       -0.2218510
H        4.3990950        2.2806070       -1.1619930
C       -2.7980840        2.0493750       -1.1465060
C       -3.0212920        2.3055290       -2.5434640
C       -3.7696010        1.3660680       -0.3686290
C       -4.2748260        1.8484870       -3.0466280
C       -5.2289430        1.1589250       -2.2790470
H       -4.5144870        2.0269010       -4.0920550
C       -4.9714610        0.8985100       -0.9208440
H       -5.6855760        0.3575700       -0.2991990
C       -2.1051410        3.0408110       -3.5901870
C       -2.7583550        4.4222340       -3.9349940
C       -0.6294490        3.2939970       -3.1669550
C       -2.0184700        2.1834010       -4.9012340
H       -2.1668020        4.9351580       -4.7087740
H       -2.7998630        5.0812850       -3.0539950
H       -3.7831100        4.3078270       -4.3146470
H       -0.1298330        2.3606260       -2.8941190
H       -0.5324370        4.0081060       -2.3440900
H       -0.0921600        3.7268830       -4.0243720
H       -1.6288700        1.1814230       -4.6814810
H       -1.3328780        2.6707010       -5.6105690
H       -2.9833260        2.0744630       -5.4123000
H       -3.5603300        1.2009690        0.6841140
C       -2.7967550        4.3133180        1.0166360
C       -3.9218430        5.0060880        0.5113940
N       -2.7050740        3.9397650        2.3259770
C       -4.9890010        5.3125330        1.3813260
H       -3.9681570        5.2921670       -0.5390570
C       -4.9030270        4.9170920        2.7321940
H       -5.8666470        5.8445270        1.0117920
C       -3.7409350        4.2352700        3.1558090
H       -5.7054840        5.1297500        3.4387420
H       -3.6278470        3.9117770        4.1923590
H       -6.1593030        0.8281610       -2.7440110
C        1.6963440        2.5011360        3.6843280
C        1.7564290        3.9733470        4.2144040
C        0.2282810        1.9911000        3.7454820
C        2.5019950        1.5934250        4.6769310
H        1.3465460        4.0215830        5.2349020
H        1.1680870        4.6564870        3.5860450
H        2.7895080        4.3497880        4.2446420
H       -0.4812940        2.6178540        3.2042330
H       -0.0926460        1.9751560        4.7985260
H        0.1350160        0.9694810        3.3597460
H        1.9691560        1.5539340        5.6378730
H        3.5136910        1.9633000        4.8900240
H        2.5839960        0.5645290        4.2967670
H        1.9067160        2.3500210       -1.1650750
H        5.6112820        2.3979010        1.0580010
