53
M00000529_2D_DFT last geometry from G09 out file
 Ru        0.2706370       -0.2539110       -0.5597190
 C        2.0226050       -0.5332400       -0.1688090
 Cl        0.4513880        0.3474010       -2.9021070
 Cl       -0.7216600       -1.5031410        1.2451720
 H        2.7314710        0.1193450        0.3465830
 H        2.4087260       -1.5249190       -0.4895650
 C       -0.0766570        1.5560050        0.0437300
 N        0.7812150        2.5914660        0.3822180
 N       -1.3750730        2.0775710        0.0491440
 C        0.0479880        3.8564370        0.6730220
 C        2.1708250        2.5371780        0.7798570
 C       -1.3565430        3.5956860        0.0879700
 H        0.5388580        4.7130150        0.1946700
 H        0.0265270        4.0367460        1.7578540
 H       -1.3794640        3.9351300       -0.9617510
 C        2.4770770        2.1276740        2.0992130
 C        3.1938130        2.9798110       -0.1072420
 C        3.8078560        2.1370700        2.5607980
 C        4.8358320        2.5694170        1.6960130
 H        4.0366660        1.8096140        3.5757960
 C        4.5246640        2.9812350        0.3833890
 H        5.3281710        3.3066500       -0.2794860
 C       -2.5552360        1.4015210       -0.4784300
 C       -2.7533330        1.4097840       -1.8825260
 C       -3.5232630        0.8179240        0.3873590
 C       -3.9002170        0.8285570       -2.4518630
 C       -4.8660880        0.2383570       -1.6095530
 H       -4.0279380        0.8258170       -3.5351080
 C       -4.6694400        0.2371970       -0.2162650
 H       -5.4161750       -0.2289050        0.4296530
 H       -1.9903810        1.8427690       -2.5258040
 C       -3.4021870        0.7847470        1.8993790
 H       -2.4014590        1.0610450        2.2386630
 H       -3.6086230       -0.2264120        2.2755220
 H       -4.1307220        1.4706620        2.3593480
 C       -2.5031410        4.2864820        0.8221100
 C       -3.4458540        5.0295900        0.0711300
 C       -2.6406480        4.2544200        2.2322690
 C       -4.4973390        5.7239500        0.7054570
 H       -3.3617740        5.0634980       -1.0169220
 C       -4.6213540        5.6866550        2.1100420
 H       -5.2132910        6.2891620        0.1065820
 C       -3.6887540        4.9467090        2.8702640
 H       -5.4318860        6.2237370        2.6055960
 H       -3.7789970        4.9085750        3.9572810
 H       -1.9420430        3.6787830        2.8402140
 H       -5.7592300       -0.2232300       -2.0344910
 H        1.6712390        1.7825240        2.7480560
 C        2.8960710        3.4202160       -1.5294780
 H        2.2908940        2.6766420       -2.0636250
 H        3.8259680        3.5751210       -2.0923990
 H        2.3378770        4.3704160       -1.5526050
 H        5.8720000        2.5827470        2.0381910
