77
Mol_000078_2D_DFT last geometry from G09 out file
 Ru        0.0444980       -0.2167670        0.3373150
 C       -0.9358580       -1.0678940       -0.9301030
 Cl       -1.4298630       -0.2811670        2.2573110
 Cl        2.1863150       -0.6889880       -0.7038760
 H       -1.3660730       -0.6593690       -1.8478070
 H       -1.0206620       -2.1676020       -0.7940710
 C       -0.2428100        1.6911000       -0.0166520
 N        0.5430440        2.6530550        0.6069720
 N       -1.1828540        2.3494240       -0.7911200
 C        1.6275340        2.3125870        1.5190700
 C        0.3515370        4.0442430       -0.0546310
 C        2.8936660        2.0133380        0.9599150
 C        1.4833950        2.2287990        2.9458980
 C        4.0071400        1.6927280        1.7529850
 C        3.8947790        1.6206040        3.1589700
 H        4.9561980        1.4649240        1.2650160
 C        2.6231090        1.8706970        3.7172520
 H        2.5164580        1.7972520        4.7980510
 C       -1.1905870        3.8804540       -0.4933060
 C       -2.2784200        1.6886230       -1.4658670
 C       -3.3427350        1.1993750       -0.6700680
 C       -2.3612930        1.5357660       -2.8886480
 C       -4.4755460        0.5940410       -1.2390360
 C       -4.6008700        0.4654540       -2.6431330
 H       -5.2629720        0.2184640       -0.5827830
 C       -3.5359650        0.9464210       -3.4347220
 H       -3.6104580        0.8325660       -4.5147810
 C       -5.8252530       -0.1824280       -3.2665930
 H       -6.7502270        0.3240460       -2.9487680
 H       -5.9153560       -1.2371240       -2.9605730
 H       -5.7885500       -0.1559890       -4.3639900
 C        1.3782260        4.0928640       -1.2554920
 C        1.5751720        5.3911450       -2.0858280
 H        2.3519880        3.8775680       -0.8013370
 H        1.1667460        3.2604060       -1.9366580
 H        0.8094790        5.5341010       -2.8560880
 H        2.5421210        5.3227760       -2.6098580
 H        1.6043950        6.2998060       -1.4705590
 C        0.5728510        5.2297690        0.9319010
 C        2.0145590        5.6268590        1.3387900
 H        0.1067980        6.1118650        0.4689000
 H        0.0179190        5.0171090        1.8463410
 H        2.6557920        5.8872710        0.4875800
 H        2.5214450        4.8451810        1.9143740
 H        1.9549960        6.5173850        1.9855510
 C       -1.5456210        4.7419610       -1.7459520
 C       -3.0273580        4.9112050       -2.1705430
 H       -1.1544270        5.7499140       -1.5493020
 H       -0.9802670        4.3619100       -2.6011820
 H       -3.6286420        5.4279760       -1.4137120
 H       -3.5250210        3.9638520       -2.4002260
 H       -3.0579220        5.5285150       -3.0835610
 C       -2.2527840        4.0845490        0.6539110
 C       -2.6042890        5.5077600        1.1694050
 H       -3.1815870        3.6525380        0.2605340
 H       -1.9611380        3.4727310        1.5123890
 H       -1.9253920        5.8438490        1.9594980
 H       -3.6145700        5.4822570        1.6083100
 H       -2.6117560        6.2740110        0.3832490
 H        2.9941180        1.9844910       -0.1188080
 C        0.2207160        2.5334170        3.7298560
 C       -0.0545970        1.7416750        5.0107050
 O       -0.5727140        3.4493490        3.3887290
 H        0.5003590        2.1789440        5.8575330
 H       -1.1239730        1.8187930        5.2367060
 H        0.2237920        0.6861880        4.9153970
 C        5.0844620        1.2514780        4.0275650
 H        5.9443850        1.9105860        3.8302810
 H        5.4154210        0.2203480        3.8232430
 H        4.8469370        1.3191160        5.0977790
 H       -3.2560580        1.2665550        0.4107250
 C       -1.2430840        1.8891730       -3.8454610
 C       -1.5915620        2.2222220       -5.3029500
 O       -0.0359810        1.8886950       -3.4874730
 H       -2.4788400        2.8645820       -5.3892740
 H       -0.7265800        2.7185680       -5.7585100
 H       -1.7843360        1.3007570       -5.8760050
