79
Mol_000079_2D_DFT last geometry from G09 out file
 Ru        0.1537650       -0.3544970       -0.3041270
 C       -0.8538710       -0.9957180       -1.6736530
 Cl       -1.0696480       -0.9232790        1.7067670
 Cl        2.2159300       -0.2146730       -1.5605930
 H       -1.4109860       -0.4381190       -2.4332990
 H       -0.8145800       -2.0975700       -1.8056250
 C       -0.3358750        1.5292580       -0.2471630
 N        0.5152440        2.4490340        0.3486540
 N       -1.4614770        2.2182590       -0.6793900
 C        1.6785420        2.0713320        1.1232070
 C        0.0881310        3.8969240        0.0938730
 C        2.9913420        2.2480800        0.6258650
 C        1.4984330        1.5331280        2.4201640
 C        4.1021930        1.9069530        1.4147760
 C        3.9154460        1.3784000        2.7120400
 H        5.1062170        2.0395190        1.0147130
 C        2.6094860        1.1782300        3.2078120
 H        2.4527830        0.7604410        4.2010190
 C       -1.4972390        3.6580580       -0.0893800
 C       -2.5985980        1.6032360       -1.3259470
 C       -3.3950110        0.6497160       -0.6442240
 C       -2.9290800        1.9403360       -2.6606430
 C       -4.5019920        0.0594630       -1.2779430
 C       -4.8388780        0.4208100       -2.6020490
 H       -5.1009300       -0.6716300       -0.7366700
 C       -4.0432140        1.3596310       -3.2943480
 H       -4.2835330        1.6346640       -4.3203150
 C       -6.0013880       -0.2406340       -3.2943090
 F       -6.5873740        0.5774320       -4.2896390
 F       -7.0405400       -0.6000720       -2.4053890
 F       -5.6270140       -1.4455110       -3.9581070
 C        0.8354000        4.4467400       -1.1784240
 C        0.8851820        3.6321480       -2.4964440
 H        1.8782630        4.6083370       -0.8769500
 H        0.4400650        5.4517830       -1.3899620
 C        1.7868120        4.3206920       -3.5481680
 H       -0.1163000        3.5028640       -2.9269590
 H        1.2705160        2.6224080       -2.3061240
 H        2.8220840        4.4255290       -3.1856740
 H        1.8218100        3.7285050       -4.4753320
 H        1.4200770        5.3276800       -3.8061930
 C        0.3928170        4.8271480        1.3291250
 C        1.7687300        5.5338330        1.4684650
 H        0.2159540        4.2496470        2.2459660
 H       -0.3579110        5.6275330        1.3260360
 C        1.8598560        6.3043290        2.8067100
 H        1.9181710        6.2484030        0.6444460
 H        2.5963820        4.8153670        1.4201330
 H        1.7750990        5.6245720        3.6691270
 H        2.8247150        6.8276530        2.8895060
 H        1.0623840        7.0599540        2.8947280
 C       -2.1984480        4.6559770       -1.0595830
 C       -2.3269470        6.1373320       -0.6090240
 H       -3.2150830        4.2842100       -1.2428820
 H       -1.6918290        4.6439670       -2.0309010
 C       -3.1547330        6.9638630       -1.6205270
 H       -1.3354170        6.6024410       -0.5086680
 H       -2.8059030        6.2048840        0.3786160
 H       -4.1775160        6.5680140       -1.7224270
 H       -3.2336990        8.0131720       -1.2971640
 H       -2.6925010        6.9574560       -2.6204760
 C       -2.2448770        3.5824420        1.3015740
 C       -3.7955370        3.5043730        1.3273850
 H       -1.9797530        4.4695060        1.8884460
 H       -1.8431040        2.7199110        1.8525310
 C       -4.3203880        3.3425160        2.7737420
 H       -4.1685460        2.6699900        0.7245800
 H       -4.2321070        4.4188800        0.8980820
 H       -3.9565800        2.4086410        3.2304400
 H       -3.9987640        4.1774230        3.4172110
 H       -5.4208650        3.3151220        2.7892950
 H        3.1464830        2.6073960       -0.3863880
 H        0.4945510        1.3750550        2.8055870
 C        5.1088090        0.9725500        3.5373640
 F        4.8645750        1.0440610        4.9296320
 F        6.2466010        1.7789540        3.2889060
 F        5.5226690       -0.3651980        3.2854660
 H       -3.1333100        0.3535900        0.3675650
 H       -2.3076680        2.6374440       -3.2158690
