115
Mol_000160_2D_DFT last geometry from G09 out file
 Ru        0.2524890       -0.5557430       -0.8620480
 C       -1.1220920       -1.6091800       -1.3990530
 Cl        0.6307450       -1.5367910        1.3143340
 Cl        0.9423910        0.1917730       -3.0808970
 H       -2.1906060       -1.3966220       -1.4511120
 H       -0.8018500       -2.6188670       -1.7399460
 C       -0.4722190        1.1865980       -0.3683470
 N        0.4035550        2.1734680        0.0908680
 N       -1.7208520        1.7485580       -0.5471550
 C        1.5250400        1.9107310        1.0018610
 C       -0.1800300        3.5825660       -0.1996680
 C        2.8974730        1.7794610        0.6178030
 C        1.1856370        1.8113830        2.3767880
 C        3.8462220        1.5968660        1.6594620
 C        3.5171080        1.5180230        3.0280830
 H        4.8959110        1.4983530        1.3814140
 C        2.1500140        1.6234610        3.3751630
 H        1.8377690        1.5415930        4.4179250
 C       -1.7594700        3.2451100       -0.1046460
 C       -2.8133150        1.0837630       -1.2450670
 C       -3.8408230        0.3352480       -0.5867370
 C       -2.8206740        1.1837750       -2.6592910
 C       -4.8595010       -0.2216010       -1.4059180
 C       -4.8940490       -0.1011520       -2.8127180
 H       -5.6566910       -0.7869150       -0.9217990
 C       -3.8385570        0.6082630       -3.4349000
 H       -3.8050780        0.7042360       -4.5216280
 C       -5.9979990       -0.7570100       -3.6342260
 C       -5.6375650       -2.1912410       -4.1116150
 H       -6.2193440       -0.1373070       -4.5182470
 H       -6.9258940       -0.8040100       -3.0419330
 H       -4.7336900       -2.1865190       -4.7389540
 H       -6.4612710       -2.6191260       -4.7042550
 H       -5.4500030       -2.8591750       -3.2574060
 C        0.3366770        3.9319860       -1.6522880
 C        0.1337630        5.3410050       -2.2826920
 H        1.4175790        3.7597730       -1.6081740
 H       -0.0419870        3.1717520       -2.3479340
 C        1.0930820        5.5640190       -3.4816080
 H       -0.8935930        5.4720930       -2.6457550
 H        0.3036820        6.1392770       -1.5451130
 C        0.8795570        6.9199670       -4.1901730
 H        0.9599000        4.7462160       -4.2109720
 H        2.1385570        5.4961670       -3.1340620
 H        1.5802710        7.0422070       -5.0310130
 H        1.0373340        7.7635280       -3.4985510
 H       -0.1426100        7.0051640       -4.5930920
 C        0.2433070        4.6663430        0.8370240
 C        1.6820110        5.2463630        0.8385740
 H       -0.4460970        5.5105030        0.6896340
 H        0.0507830        4.2841240        1.8444250
 C        1.8192410        6.3986300        1.8669660
 H        2.4093940        4.4674710        1.0911150
 H        1.9578830        5.6317960       -0.1522140
 C        3.2401130        7.0029300        1.9165120
 H        1.5505060        6.0261860        2.8712820
 H        1.0934190        7.1968830        1.6276270
 H        3.3012830        7.8155720        2.6575240
 H        3.5326330        7.4193840        0.9390970
 H        3.9867850        6.2414370        2.1922110
 C       -2.6076260        4.1332850       -1.0704160
 C       -4.1595490        4.0977570       -1.0187540
 H       -2.3028590        5.1716020       -0.8751110
 H       -2.3065960        3.9165060       -2.1005710
 C       -4.7768560        5.0834040       -2.0442560
 H       -4.5362440        3.0913790       -1.2332460
 H       -4.5282730        4.3667740       -0.0191410
 C       -6.3214360        5.0940290       -2.0220660
 H       -4.4318520        4.8188040       -3.0591380
 H       -4.4038070        6.1045410       -1.8466950
 H       -6.7060150        5.3918690       -1.0332170
 H       -6.7294380        4.0971850       -2.2531970
 H       -6.7249440        5.8011580       -2.7638430
 C       -2.3712930        3.2599410        1.3482730
 C       -2.7033010        4.5924590        2.0859410
 H       -3.3167790        2.7183870        1.2565020
 H       -1.7383810        2.6452230        2.0016030
 C       -3.6970370        4.3652110        3.2553870
 H       -1.7989840        5.0537690        2.5001920
 H       -3.1368980        5.3316450        1.3968490
 C       -3.9891110        5.6498180        4.0621490
 H       -3.2911410        3.5948770        3.9347290
 H       -4.6455400        3.9602530        2.8627400
 H       -4.6990990        5.4515200        4.8803440
 H       -4.4267660        6.4335180        3.4228680
 H       -3.0696390        6.0594600        4.5102140
 C        3.4203820        1.7830420       -0.8295100
 C        4.1629240        0.4577580       -1.1724690
 C        4.3515830        2.9929900       -1.1318010
 H        2.5627190        1.8449600       -1.5067100
 H        3.5506230       -0.4219460       -0.9357850
 H        5.1120810        0.3668440       -0.6234420
 H        4.3878980        0.4271680       -2.2483770
 H        3.8558020        3.9544590       -0.9460360
 H        4.6594970        2.9686940       -2.1886210
 H        5.2650170        2.9645440       -0.5189180
 H        0.1369350        1.8587390        2.6600790
 C        4.5858350        1.2680100        4.0849850
 C        4.8006370       -0.2418460        4.3841730
 H        4.3091150        1.7779050        5.0223290
 H        5.5438370        1.7043890        3.7590190
 H        3.8735910       -0.7111440        4.7451350
 H        5.5768410       -0.3767620        5.1540380
 H        5.1156420       -0.7837270        3.4801460
 C       -3.8941720        0.0593750        0.9287160
 C       -3.7214680       -1.4504580        1.2688380
 C       -5.2053170        0.5943740        1.5762160
 H       -3.0482280        0.5744970        1.3964800
 H       -3.7886890       -1.5924810        2.3585990
 H       -2.7418560       -1.8255420        0.9514720
 H       -4.5033590       -2.0685200        0.8029350
 H       -5.3926640        1.6481460        1.3272260
 H       -5.1464810        0.5071770        2.6720800
 H       -6.0816370        0.0166720        1.2473960
 H       -1.9955780        1.6950660       -3.1497160
