63
Mol_000216_2D_DFT last geometry from G09 out file
 Ru        0.2107820       -0.0255480        0.0990190
 C       -1.1684910       -0.7725490       -0.8159490
 Cl       -0.6499340       -0.3069510        2.3333380
 Cl        1.9586190       -0.2373720       -1.5711970
 H       -1.9900550       -0.2923090       -1.3519770
 H       -1.1690810       -1.8842990       -0.8046400
 C        0.0047780        1.8943430       -0.1472370
 N        0.8730340        2.7902570        0.4732610
 N       -0.7978410        2.6232530       -1.0087680
 C        0.8166500        4.1671600       -0.1314740
 C        2.0299060        2.4304800        1.2885710
 C        0.6719820        5.3204040        0.9022590
 C       -0.3689770        4.0634470       -1.1420090
 H        1.7616510        4.3235020       -0.6761220
 C       -0.7434660        5.4795600        1.4191610
 H        1.3918130        5.1724560        1.7157770
 H        0.9847260        6.2476940        0.3864860
 C       -1.7825180        5.3695740        0.5569770
 H       -0.9029980        5.6816730        2.4791230
 C       -1.5035280        5.1047400       -0.9073550
 H       -2.8165470        5.4776300        0.8909380
 H       -2.4091030        4.7953240       -1.4433340
 H       -1.1700620        6.0414020       -1.3919060
 H       -0.0001550        4.2066260       -2.1686530
 C        1.9874950        2.4201160        2.7157790
 C        3.2402430        2.1560990        0.6007660
 C        3.1892740        2.0739530        3.3915170
 C        4.3855060        1.7887570        2.7096180
 H        3.1783590        2.0183470        4.4804700
 C        4.4164110        1.8372450        1.3000950
 H        5.3313110        1.6085710        0.7523070
 C       -2.0094030        2.1912830       -1.6676220
 C       -2.0583070        1.9901020       -3.0787030
 C       -3.1772930        2.0591020       -0.8748550
 C       -3.3266640        1.6959080       -3.6474510
 C       -4.4893060        1.5704600       -2.8633130
 H       -3.3993110        1.5543820       -4.7265080
 C       -4.4138510        1.7377540       -1.4630110
 H       -5.3032540        1.6296570       -0.8407910
 C        0.7364340        2.7108160        3.5400590
 C        0.8948960        3.8233460        4.6148610
 H        0.4419780        1.7800090        4.0479180
 H       -0.0994010        2.9601950        2.8781190
 C       -0.3848120        4.0048580        5.4621840
 H        1.1585020        4.7802930        4.1344360
 H        1.7319300        3.5820240        5.2890810
 H       -0.6377100        3.0776310        6.0001260
 H       -0.2550170        4.8029120        6.2102760
 H       -1.2514600        4.2679190        4.8354600
 H        3.2407090        2.1543190       -0.4869710
 H        5.2825230        1.5225430        3.2715880
 C       -0.8227950        2.0628100       -3.9741930
 C       -0.5498120        0.7778440       -4.8092070
 H        0.0687910        2.2546400       -3.3660420
 H       -0.9302070        2.9121890       -4.6732890
 C        0.7146250        0.9081380       -5.6857050
 H       -1.4158540        0.5518910       -5.4521160
 H       -0.4267800       -0.0742990       -4.1241670
 H        1.6090790        1.0712130       -5.0656280
 H        0.8800630       -0.0108050       -6.2691300
 H        0.6311080        1.7465950       -6.3967950
 H       -3.0975890        2.2023240        0.2024610
 H       -5.4442960        1.3401620       -3.3387140
