73
Mol_000137_2D_DFT last geometry from G09 out file
Ru       -0.1408470       -0.6034760        0.9182910
C       -1.8944260       -1.0677380        0.8559260
Cl        0.0963930       -0.5508690        3.3211690
Cl        0.7633350       -1.3258890       -1.2016900
H       -2.7385110       -0.3745790        0.9034200
H       -2.1214390       -2.1536190        0.8884690
C       -0.2992780        1.2927480        0.5401570
N        0.7510310        2.1695010        0.7641380
N       -1.3761390        2.0386560        0.0557580
C        0.4068100        3.6062140        0.5263030
C        2.1165130        1.7948640        1.0614530
C        0.5540640        4.4970060        1.7997160
C       -1.0535450        3.5147470       -0.0183780
H        1.0774650        3.9853870       -0.2531520
C       -0.6030570        4.3406880        2.7640170
H        1.5193060        4.2943420        2.2811220
H        0.6087550        5.5428490        1.4433410
C       -1.8614110        4.3130720        2.2624490
H       -0.4083640        4.2253080        3.8318220
C       -2.0388110        4.4324300        0.7630880
H       -2.7326870        4.1573820        2.8989940
H       -3.0696260        4.2352440        0.4504630
H       -1.8176250        5.4662090        0.4358540
H       -1.0753400        3.8005130       -1.0813470
C        2.4950520        1.6470070        2.4123040
C        3.0990460        1.5901590        0.0334410
C        3.8128570        1.3097170        2.7726300
C        4.8032560        1.1030550        1.7856810
H        4.0594090        1.1900570        3.8289190
C        4.4144300        1.2375080        0.4333680
H        5.1672960        1.0647020       -0.3340780
C       -2.3540800        1.5457250       -0.8983280
C       -1.8595410        1.0898340       -2.1437670
C       -3.7705890        1.6298910       -0.7085040
C       -2.7252470        0.7040840       -3.1813540
C       -4.1290690        0.8032820       -3.0321770
H       -2.2995790        0.3307340       -4.1144400
C       -4.6170960        1.2765680       -1.7944390
H       -5.6964350        1.3370300       -1.6573790
H        1.7334840        1.7590740        3.1784660
C        2.8097840        1.7381510       -1.4451990
C        3.6549570        0.9479480       -2.4440370
O        1.9008900        2.5051690       -1.8701740
H        3.1758410        1.0105450       -3.4274480
H        4.6683890        1.3724990       -2.5289850
H        3.7459470       -0.1048730       -2.1476660
C        6.2393320        0.7642810        2.1610620
C        7.1313080        2.0212320        2.3868060
H        6.6971680        0.1457960        1.3721380
H        6.2484120        0.1583230        3.0813200
C        8.5839130        1.6643800        2.7699950
H        6.6833520        2.6450050        3.1783050
H        7.1308490        2.6352050        1.4704550
H        9.0718720        1.0683430        1.9822660
H        9.1852460        2.5742260        2.9220910
H        8.6199740        1.0794730        3.7028750
H       -0.7839940        1.0268360       -2.2880510
C       -4.4297320        1.9523440        0.6141650
C       -5.7793940        2.6826800        0.6089390
O       -3.9199690        1.5946110        1.7094180
H       -5.8480610        3.4443590       -0.1794530
H       -6.6006680        1.9635420        0.4553610
H       -5.9311320        3.1447530        1.5921030
C       -5.0755060        0.4385310       -4.1681270
C       -5.3398330        1.6152760       -5.1539390
H       -6.0411740        0.1000610       -3.7588650
H       -4.6609660       -0.4087790       -4.7379970
C       -6.2943950        1.2305880       -6.3051070
H       -4.3791910        1.9606390       -5.5708840
H       -5.7597260        2.4683340       -4.5946280
H       -7.2773200        0.9121870       -5.9223780
H       -6.4590720        2.0838970       -6.9813360
H       -5.8847580        0.4024180       -6.9051480
