85
Mol_000138_2D_DFT last geometry from G09 out file
Ru        0.2236960       -0.1408100        0.1671430
C       -1.2669500       -0.9456020       -0.4857060
Cl       -0.2205450       -0.4470040        2.5255710
Cl        1.6501470       -0.5071620       -1.7578710
H       -2.1617710       -0.4937620       -0.9187090
H       -1.2444730       -2.0561590       -0.4386900
C       -0.0971210        1.7800650       -0.0467810
N        0.8492180        2.7138500        0.3776980
N       -1.1482360        2.4817300       -0.6186950
C        0.4070530        4.1492950        0.1540000
C        1.9493230        2.4332030        1.3055060
C       -0.8648470        3.9759120       -0.7316860
H        0.1179980        4.5380530        1.1378730
H       -0.6026190        4.1496600       -1.7829060
C        3.2521970        2.1403920        0.7982860
C        1.7133070        2.5465530        2.7098240
C        4.3040080        1.8569060        1.7207880
C        4.0588750        1.8950630        3.1231670
C        2.7822700        2.2930820        3.6141000
C       -2.2846930        1.9411940       -1.3496590
C       -3.4923180        1.6524670       -0.6449160
C       -2.1938950        1.7881700       -2.7646760
C       -4.6357510        1.2222010       -1.3817380
C       -4.5598500        1.0722050       -2.7979210
C       -3.3492100        1.3721140       -3.4881360
C        1.5617220        5.0873170       -0.3631170
C        1.4715160        6.5032830        0.2676790
C        1.7346320        5.1839310       -1.8993310
H        2.4835710        4.6451020        0.0391280
H        1.4581970        6.4517370        1.3674130
H        0.5788230        7.0551660       -0.0572380
H        2.3495810        7.1003480       -0.0223910
H        2.6858950        5.6876080       -2.1299740
H        0.9352840        5.7736060       -2.3710770
H        1.7640270        4.1978210       -2.3806250
C       -2.1187780        4.8823090       -0.4374300
C       -2.1640030        6.1126250       -1.3838310
C       -2.3278760        5.3190390        1.0338980
H       -2.9861030        4.2666820       -0.7145340
H       -3.1028840        6.6673290       -1.2341690
H       -2.1276910        5.8069800       -2.4408960
H       -1.3375070        6.8137550       -1.2048200
H       -2.2790020        4.4742980        1.7320970
H       -3.3241540        5.7752850        1.1409950
H       -1.5933690        6.0721530        1.3535660
C        3.5468520        2.1493220       -0.6936390
H        2.6432900        2.3000110       -1.2817680
H        3.9792140        1.1980820       -1.0255610
H        4.2631830        2.9483360       -0.9463250
C        0.3465830        2.9126980        3.2697070
H        0.0690980        2.2405150        4.0895510
H       -0.4405740        2.8251350        2.5210220
H        0.3371850        3.9424520        3.6665940
C        5.7000980        1.5119420        1.2082660
H        5.8388730        1.7860790        0.1590400
H        5.8977710        0.4289390        1.2848740
H        6.4821170        2.0262030        1.7844360
C        5.1589790        1.5054700        4.1067360
H        5.9213880        0.8734580        3.6402940
H        4.7524850        0.9427050        4.9570230
H        5.6749900        2.3904120        4.5187410
C        2.5427530        2.4198220        5.1151020
H        3.4653110        2.6451910        5.6619910
H        2.1293170        1.4859940        5.5344460
H        1.8276210        3.2182690        5.3477680
C       -3.5536880        1.7467410        0.8738440
H       -4.2615260        2.5217390        1.2073360
H       -2.5775090        1.9720230        1.3028480
H       -3.8832920        0.7948730        1.3149170
C       -0.8803050        2.0138900       -3.5011470
H       -0.6631880        1.1750960       -4.1759280
H       -0.0342580        2.0819150       -2.8165150
H       -0.9057920        2.9285630       -4.1168030
C       -5.9461190        0.9220740       -0.6581000
H       -6.8014820        1.3918820       -1.1646290
H       -5.9443010        1.2834390        0.3737670
H       -6.1494100       -0.1616960       -0.6193210
C       -5.7686320        0.5747040       -3.5853280
H       -6.4780620        0.0290320       -2.9551890
H       -5.4701320       -0.1024280       -4.3960620
H       -6.3212310        1.4099710       -4.0501350
C       -3.2889900        1.2347060       -5.0064170
H       -3.0930820        0.1919000       -5.3115670
H       -2.4968480        1.8503900       -5.4448940
H       -4.2327840        1.5368640       -5.4782840
