107
Mol_000263_2D_DFT last geometry from G09 out file
 Ru        0.1830670       -0.2566220       -0.8100280
 C       -1.3276690       -1.1672330       -1.2293200
 Cl        0.5730910       -1.2040790        1.3824700
 Cl        0.8044870        0.3281330       -3.1012300
 H       -2.3658140       -0.8326820       -1.2384480
 H       -1.1434300       -2.2194750       -1.5420740
 C       -0.3242730        1.5703310       -0.3503810
 N        0.6802710        2.4748320       -0.0005510
 N       -1.5227530        2.2477810       -0.4573620
 C        1.8415500        2.1254230        0.8238750
 C        0.2146830        3.9263530       -0.2958000
 C        3.1674610        1.8601060        0.3509710
 C        1.6157370        2.0827140        2.2246730
 C        4.1792840        1.6182570        1.3099530
 C        3.9618880        1.6071130        2.7170890
 H        5.1747090        1.4057640        0.9329800
 C        2.6242840        1.8368620        3.1585350
 H        2.3601950        1.7950050        4.2121630
 C       -1.3760550        3.7513760       -0.0652220
 C       -2.7254380        1.6826810       -1.0494700
 C       -3.7775420        1.0589290       -0.3051250
 C       -2.8343970        1.7330760       -2.4617230
 C       -4.9044050        0.5841070       -1.0182370
 C       -5.0433500        0.6731890       -2.4352680
 H       -5.6932500        0.1091930       -0.4426930
 C       -3.9501880        1.2493450       -3.1529100
 H       -3.9535300        1.3061910       -4.2383870
 N       -6.1872080        0.2034670       -3.0942730
 C       -7.2761440       -0.4292410       -2.3387380
 C       -6.2633880        0.2462260       -4.5615170
 H       -8.0926970       -0.6895650       -3.0221570
 H       -7.6878150        0.2498550       -1.5726340
 H       -6.9518240       -1.3573390       -1.8334510
 H       -7.2349380       -0.1416020       -4.8889740
 H       -5.4775450       -0.3670130       -5.0379270
 H       -6.1698110        1.2770000       -4.9437660
 C        0.6420210        4.1811480       -1.7964640
 C        0.5338740        5.5857840       -2.4589270
 H        0.1300250        3.4475830       -2.4331710
 H        1.6993770        3.8975310       -1.8351870
 C        1.3646240        5.6505650       -3.7641230
 H        0.8839820        6.3757140       -1.7786460
 H       -0.5059190        5.8329910       -2.7063580
 H        1.0432230        4.8776080       -4.4800420
 H        1.2522550        6.6306170       -4.2547950
 H        2.4371890        5.4939420       -3.5689750
 C        0.8261710        4.9899940        0.6649000
 C        2.3123320        5.4160300        0.5365250
 H        0.6784850        4.6582220        1.6976890
 H        0.2178190        5.8979670        0.5395960
 C        2.6419460        6.5784990        1.5027800
 H        2.5479770        5.7353790       -0.4871800
 H        2.9714600        4.5729000        0.7661840
 H        2.0307880        7.4712130        1.2900760
 H        2.4634370        6.2914980        2.5514890
 H        3.7002680        6.8705130        1.4151980
 C       -2.2119560        4.6948560       -0.9881740
 C       -3.7522810        4.8060080       -0.8193620
 H       -2.0162820        4.4282730       -2.0321610
 H       -1.7999010        5.7048400       -0.8462800
 C       -4.3446110        5.8426580       -1.8036320
 H       -4.0178060        5.1078920        0.2029560
 H       -4.2335190        3.8384560       -0.9969490
 H       -5.4360320        5.9210890       -1.6783370
 H       -3.9174270        6.8462950       -1.6435230
 H       -4.1501780        5.5589260       -2.8501870
 C       -1.8593200        3.8630460        1.4317510
 C       -2.0095720        5.2390890        2.1481530
 H       -1.2295390        3.2126480        2.0530370
 H       -2.8532280        3.4073110        1.4383460
 C       -2.8658440        5.1161980        3.4321750
 H       -2.4744040        5.9819150        1.4843980
 H       -1.0339120        5.6502850        2.4312720
 H       -3.8929660        4.7891910        3.2074980
 H       -2.4309650        4.3875870        4.1351740
 H       -2.9296510        6.0842750        3.9539150
 C        3.5728160        1.7731410       -1.1329100
 C        4.1679030        0.3786600       -1.4877780
 C        4.5748830        2.8864380       -1.5555690
 H        2.6698530        1.8891930       -1.7404700
 H        4.2889630        0.2933050       -2.5774790
 H        3.5082730       -0.4357240       -1.1616850
 H        5.1532100        0.2236500       -1.0227000
 H        5.5324890        2.7934030       -1.0213050
 H        4.1824620        3.8928950       -1.3611150
 H        4.7861070        2.8068840       -2.6334510
 H        0.6011050        2.2196070        2.5919830
 N        5.0045620        1.3698460        3.6237190
 C        4.7197100        1.2588290        5.0609760
 C        6.3546790        1.0558200        3.1382450
 H        5.6552470        1.0912830        5.6074850
 H        4.0390080        0.4184910        5.2886580
 H        4.2652850        2.1830200        5.4565700
 H        6.3820850        0.1203470        2.5498260
 H        7.0317730        0.9351310        3.9920840
 H        6.7572290        1.8669050        2.5081440
 C       -3.7448350        0.8261870        1.2198210
 C       -3.7072940       -0.6829590        1.6004120
 C       -4.9343360        1.5194820        1.9469590
 H       -2.8139240        1.2575300        1.6035900
 H       -3.6943380       -0.7871550        2.6966250
 H       -2.8048170       -1.1716190        1.2163230
 H       -4.5881030       -1.2239690        1.2234920
 H       -5.8912160        1.0320150        1.7081030
 H       -5.0273920        2.5796080        1.6727580
 H       -4.7972790        1.4585130        3.0378140
 H       -1.9988880        2.1319470       -3.0333010
