85
Mol_000268_2D_DFT last geometry from G09 out file
 Ru       -0.0268140       -0.1281420        0.4056860
 C       -1.5012720       -0.9785510       -0.2269590
 Cl       -0.5652580        0.0332140        2.7681670
 Cl        1.4339830       -0.7890630       -1.4098880
 H       -2.3249610       -0.5831430       -0.8248080
 H       -1.5229930       -2.0701320       -0.0170270
 C       -0.3159930        1.7640610        0.0154130
 N        0.7325150        2.6714800        0.1295780
 N       -1.4747960        2.4761000       -0.2568200
 C        1.9877420        2.3307250        0.8011740
 C        0.3035830        4.1015740       -0.2910530
 C        3.2083640        2.0343970        0.1190540
 C        1.9699530        2.3135250        2.2200310
 C        4.3434820        1.7239750        0.9111880
 C        4.3334900        1.6968620        2.3235660
 H        5.2733680        1.4846410        0.3905920
 C        3.1140790        2.0036410        2.9715340
 H        3.0493440        1.9866810        4.0607360
 C       -1.2732500        3.9918240        0.0262940
 C       -2.6456960        1.9211510       -0.9155770
 C       -3.8162880        1.4847370       -0.2244270
 C       -2.5987000        1.8123580       -2.3286490
 C       -4.9008710        1.0039790       -1.0039360
 C       -4.8745210        0.9161100       -2.4144660
 H       -5.7981610        0.6728460       -0.4760060
 C       -3.6867700        1.3221250       -3.0701370
 H       -3.6093690        1.2533550       -4.1567990
 C       -6.0566750        0.3533720       -3.1928190
 C       -5.9745400       -1.1869310       -3.4117530
 H       -6.1210090        0.8430200       -4.1784110
 H       -6.9964800        0.5818900       -2.6641550
 C       -7.1750310       -1.7457240       -4.2059760
 H       -5.9147540       -1.6879190       -2.4311340
 H       -5.0373640       -1.4276130       -3.9405530
 H       -7.2411490       -1.2895760       -5.2068100
 H       -7.0844420       -2.8348770       -4.3403750
 H       -8.1264360       -1.5507780       -3.6854210
 C        0.6597050        4.2290840       -1.8221500
 C        0.5179060        5.5815920       -2.5735080
 H        1.7110700        3.9425860       -1.8918840
 H        0.1099980        3.4542120       -2.3739780
 H        0.8943540        6.4349720       -1.9953790
 H       -0.5104080        5.8122660       -2.8717140
 H        1.1153740        5.5299090       -3.4980710
 C        1.0064710        5.2119370        0.5503690
 C        2.4893290        5.5686070        0.2769680
 H        0.4160710        6.1284610        0.4090440
 H        0.9233530        4.9527100        1.6109610
 H        3.1711100        4.7496660        0.5238210
 H        2.7620360        6.4229650        0.9174230
 H        2.6787310        5.8705990       -0.7602120
 C       -2.1349860        4.9084600       -0.8955030
 C       -3.6562370        5.0562800       -0.6403820
 H       -1.6927370        5.9126630       -0.8289800
 H       -2.0072810        4.5857430       -1.9339750
 H       -3.8933790        5.4054020        0.3716600
 H       -4.2058590        4.1271660       -0.8169850
 H       -4.0524420        5.8073450       -1.3428980
 C       -1.6558860        4.1859030        1.5456090
 C       -1.7326830        5.6006380        2.1825910
 H       -2.6500650        3.7421540        1.6440120
 H       -0.9971840        3.5547610        2.1561240
 H       -2.2352060        6.3363770        1.5418450
 H       -0.7542220        6.0116350        2.4531820
 H       -2.3178270        5.5301700        3.1136980
 C        3.3935710        2.0450570       -1.3882160
 H        2.4669250        1.8312450       -1.9237010
 H        4.1203280        1.2774390       -1.6837980
 H        3.7903410        3.0164570       -1.7284360
 H        1.0357170        2.5154260        2.7358340
 C        5.5721520        1.2977580        3.1136990
 C        5.6411510       -0.2309280        3.4071290
 H        5.5942950        1.8392970        4.0738570
 H        6.4811910        1.5900900        2.5628030
 C        6.8966860       -0.6327100        4.2109920
 H        5.6197210       -0.7820130        2.4524270
 H        4.7356280       -0.5335600        3.9583380
 H        6.9277970       -0.1238060        5.1879930
 H        6.9116130       -1.7177320        4.3986300
 H        7.8206760       -0.3741840        3.6688410
 C       -3.9613580        1.4681660        1.2878610
 H       -4.4756030        2.3726720        1.6520210
 H       -2.9980660        1.3889000        1.7977310
 H       -4.5733550        0.6100440        1.6001160
 H       -1.6857260        2.1018200       -2.8465620
