97
Mol_000309_2D_DFT last geometry from G09 out file
 Ru        0.3337840       -0.2109450       -0.9430880
 C       -1.1046870       -1.2029640       -1.4297020
 Cl        0.7770170       -1.2247420        1.1992220
 Cl        0.9659360        0.5572500       -3.1651980
 H       -2.1692920       -0.9663480       -1.4120720
 H       -0.8328830       -2.2115040       -1.8114450
 C       -0.2849860        1.5474280       -0.3821260
 N        0.6511890        2.4838660        0.0693800
 N       -1.5077110        2.1786210       -0.5076670
 C        1.7783120        2.1525790        0.9455220
 C        0.1345020        3.9284740       -0.1838400
 C        3.1291010        1.9567770        0.5149780
 C        1.4667770        2.0445560        2.3266950
 C        4.1020500        1.7242230        1.5216080
 C        3.7835280        1.6584620        2.8882580
 H        5.1356720        1.5754050        1.2191770
 C        2.4428700        1.8061260        3.3001140
 H        2.1641580        1.7155080        4.3484410
 C       -1.4588370        3.6715140       -0.0465340
 C       -2.6497120        1.5791010       -1.1794220
 C       -3.6948980        0.8817340       -0.4916230
 C       -2.6836960        1.6886990       -2.5929380
 C       -4.7711330        0.3957950       -1.2777780
 C       -4.8154030        0.5462190       -2.6765150
 H       -5.5838450       -0.1310100       -0.7830180
 C       -3.7517560        1.1858580       -3.3482420
 H       -3.7459380        1.2756260       -4.4330580
 C       -6.0142960        0.0598390       -3.4482670
 F       -6.6478500       -1.0534820       -2.8469570
 F       -5.7025700       -0.3211420       -4.7726770
 F       -7.0255520        1.0606760       -3.5628590
 C        0.6295300        4.2735880       -1.6450660
 C        0.4850090        5.7016280       -2.2487850
 H        0.1943100        3.5468040       -2.3434410
 H        1.7011110        4.0466360       -1.6348470
 C        1.3887030        5.8710690       -3.4946190
 H        0.7492140        6.4753440       -1.5136420
 H       -0.5494600        5.9060260       -2.5507060
 H        1.2509040        6.8658560       -3.9465370
 H        2.4547620        5.7639140       -3.2399710
 H        1.1548510        5.1183780       -4.2638970
 C        0.6450570        4.9726180        0.8548220
 C        2.1137910        5.4735220        0.8234100
 H        0.4560020        4.5937290        1.8644300
 H        0.0028860        5.8567560        0.7330450
 C        2.3379250        6.5986800        1.8612840
 H        2.3818550        5.8557970       -0.1700110
 H        2.8066360        4.6548780        1.0442150
 H        3.3829880        6.9438170        1.8405630
 H        1.6945270        7.4709590        1.6612720
 H        2.1257500        6.2517680        2.8850450
 C       -2.2861640        4.6129610       -0.9799860
 C       -3.8369890        4.6544670       -0.8915900
 H       -2.0202970        4.4017690       -2.0211550
 H       -1.9284440        5.6322690       -0.7757530
 C       -4.4202310        5.6969990       -1.8749630
 H       -4.1680930        4.9121530        0.1233230
 H       -4.2723650        3.6761300       -1.1232380
 H       -4.0465590        6.7112990       -1.6602520
 H       -4.1602030        5.4576500       -2.9181710
 H       -5.5184720        5.7248330       -1.8060880
 C       -2.0303130        3.7006010        1.4223750
 C       -2.2764180        5.0402110        2.1810130
 H       -1.4133840        3.0490270        2.0554030
 H       -3.0049000        3.2096150        1.3538250
 C       -3.2072770        4.8343260        3.4006150
 H       -2.7248230        5.7936510        1.5182990
 H       -1.3368560        5.4720170        2.5434250
 H       -4.2071620        4.4868330        3.0979580
 H       -2.7934520        4.0915640        4.1013140
 H       -3.3357920        5.7768920        3.9550590
 C        3.6067680        1.9397350       -0.9460350
 C        4.2628460        0.5748970       -1.3112220
 C        4.5953010        3.0978330       -1.2685210
 H        2.7336550        2.0542720       -1.5958860
 H        5.2210250        0.4280700       -0.7912800
 H        4.4547190        0.5379490       -2.3928530
 H        3.6104740       -0.2713400       -1.0598880
 H        5.5262390        3.0124950       -0.6884950
 H        4.1622490        4.0850030       -1.0613390
 H        4.8655040        3.0635450       -2.3347340
 H        0.4290900        2.1275360        2.6369060
 C        4.8712680        1.4749480        3.9128030
 F        5.3771150        2.7243300        4.3912720
 F        5.9956950        0.7763530        3.4181140
 F        4.4371900        0.7787740        5.0641280
 C       -3.7168180        0.5869170        1.0197520
 C       -3.6087660       -0.9355700        1.3307680
 C       -4.9821310        1.1749840        1.7111300
 H       -2.8335120        1.0539780        1.4676500
 H       -2.6551640       -1.3531560        0.9881690
 H       -4.4291660       -1.5092140        0.8748150
 H       -3.6603160       -1.0896610        2.4192100
 H       -5.1299770        2.2387630        1.4788060
 H       -4.8911350        1.0735370        2.8029760
 H       -5.8941270        0.6403490        1.4081780
 H       -1.8403350        2.1479420       -3.1013670
