115
Mol_000308_2D_DFT last geometry from G09 out file
 Ru        0.2926590       -0.1670890       -1.0377880
 C       -1.1851470       -1.0908800       -1.5384650
 Cl        0.7056270       -1.2616260        1.0771240
 Cl        0.9248120        0.6145890       -3.2619240
 H       -2.2353430       -0.7966960       -1.5211830
 H       -0.9622670       -2.1059660       -1.9361190
 C       -0.2700190        1.6021830       -0.4416150
 N        0.7017990        2.5016100        0.0044940
 N       -1.4792620        2.2631330       -0.5308060
 C        1.8444200        2.1202060        0.8441680
 C        0.2150610        3.9605420       -0.2042360
 C        3.1792900        1.8984390        0.3890000
 C        1.5726600        1.9918200        2.2315590
 C        4.1645420        1.6033170        1.3721650
 C        3.9120640        1.4978070        2.7552430
 H        5.1760240        1.4373990        1.0140850
 C        2.5684410        1.6926200        3.1668130
 H        2.2848850        1.5929090        4.2140350
 C       -1.3792390        3.7394470       -0.0349990
 C       -2.6561810        1.7105260       -1.1877470
 C       -3.7024700        1.0181030       -0.5054300
 C       -2.7338830        1.8604330       -2.5953600
 C       -4.8053250        0.5707870       -1.2853770
 C       -4.9167500        0.7440160       -2.6826720
 H       -5.6012340        0.0515080       -0.7595750
 C       -3.8320740        1.3936510       -3.3292800
 H       -3.8282600        1.5306900       -4.4100030
 C       -6.1354570        0.2441310       -3.5069230
 C       -5.6516420       -0.7978320       -4.5671970
 C       -7.2222320       -0.4360040       -2.6274270
 C       -6.7974020        1.4577200       -4.2367290
 H       -4.9143480       -0.3694850       -5.2598080
 H       -6.5034800       -1.1564750       -5.1651470
 H       -5.1868240       -1.6677530       -4.0793340
 H       -7.6285080        0.2511640       -1.8702730
 H       -6.8371510       -1.3295530       -2.1140380
 H       -8.0601870       -0.7587770       -3.2624860
 H       -7.1557910        2.2043210       -3.5119100
 H       -7.6587670        1.1198070       -4.8330770
 H       -6.0967600        1.9599220       -4.9178390
 C        0.6819460        4.3261020       -1.6701060
 C        0.5605480        5.7701140       -2.2392490
 H        0.2083980        3.6267350       -2.3715850
 H        1.7466820        4.0695940       -1.6928120
 C        1.4301400        5.9414540       -3.5090330
 H        0.8698320        6.5197770       -1.4965290
 H       -0.4765550        6.0105260       -2.5038090
 H        1.1501890        5.2124500       -4.2857950
 H        1.3093030        6.9498520       -3.9357580
 H        2.4996100        5.7959890       -3.2898010
 C        0.7759130        4.9688550        0.8435530
 C        2.2564090        5.4301610        0.7878480
 H        0.6040410        4.5682370        1.8476280
 H        0.1538510        5.8719860        0.7587530
 C        2.5361680        6.5256020        1.8439070
 H        2.5125490        5.8269410       -0.2032320
 H        2.9274840        4.5857290        0.9746080
 H        2.3365780        6.1608880        2.8642130
 H        3.5899350        6.8431840        1.8062660
 H        1.9126080        7.4196190        1.6787260
 C       -2.2056780        4.7263780       -0.9208510
 C       -3.7520150        4.8014790       -0.7910420
 H       -1.9738600        4.5326480       -1.9733450
 H       -1.8170540        5.7314630       -0.7013830
 C       -4.3355390        5.8806370       -1.7339840
 H       -4.0510570        5.0422230        0.2381060
 H       -4.2118770        3.8377930       -1.0347230
 H       -4.1093210        5.6576660       -2.7887560
 H       -5.4308600        5.9354470       -1.6339980
 H       -3.9298530        6.8803960       -1.5081670
 C       -1.9120300        3.7430910        1.4490440
 C       -2.1066810        5.0665280        2.2491960
 H       -1.2932200        3.0610630        2.0468750
 H       -2.8985120        3.2749070        1.3924230
 C       -3.0137820        4.8509620        3.4850760
 H       -2.5507540        5.8492170        1.6180120
 H       -1.1479280        5.4645390        2.6004070
 H       -2.6023540        4.0782870        4.1542250
 H       -3.1060660        5.7806090        4.0684870
 H       -4.0284850        4.5355510        3.1967060
 C        3.6290990        1.9148910       -1.0828610
 C        4.2484810        0.5508960       -1.5088350
 C        4.6344070        3.0615050       -1.3949340
 H        2.7459290        2.0665630       -1.7115490
 H        3.5840700       -0.2883790       -1.2657540
 H        5.2160380        0.3694790       -1.0174020
 H        4.4124680        0.5420980       -2.5961200
 H        4.8851570        3.0534390       -2.4670370
 H        5.5732430        2.9418320       -0.8335480
 H        4.2243290        4.0502490       -1.1512840
 H        0.5469820        2.1019830        2.5754450
 C        5.0112320        1.1556230        3.7979570
 C        4.6456000       -0.1910460        4.5030820
 C        6.4200330        0.9958530        3.1600810
 C        5.0924880        2.2959220        4.8637080
 H        4.5722750       -1.0087700        3.7711810
 H        3.6837100       -0.1308500        5.0304470
 H        5.4177980       -0.4569380        5.2415820
 H        6.7510650        1.9166600        2.6567330
 H        6.4493000        0.1724520        2.4314470
 H        7.1556700        0.7660300        3.9449560
 H        5.3588250        3.2550390        4.3939110
 H        5.8601240        2.0597070        5.6166890
 H        4.1390120        2.4337710        5.3921210
 C       -3.6989490        0.6848290        0.9997210
 C       -3.6273410       -0.8461070        1.2760880
 C       -4.9275780        1.2922560        1.7389300
 H       -2.7918240        1.1142740        1.4384490
 H       -2.6976390       -1.2817810        0.8927030
 H       -4.4780070       -1.3843520        0.8321370
 H       -3.6490760       -1.0256780        2.3622020
 H       -5.8628890        0.7958200        1.4412470
 H       -5.0455030        2.3661260        1.5371490
 H       -4.8165200        1.1589570        2.8260980
 H       -1.8980920        2.3205070       -3.1176560
