65
Mol_000312_2D_DFT last geometry from G09 out file
 Ru       -0.2236700       -0.2879700        0.5874360
 C       -0.8521670       -0.9031260       -1.0061300
 Cl       -2.1410340       -0.0582090        2.0154240
 Cl        1.9105420       -1.4101810        0.5116460
 H       -0.7351800       -0.4004910       -1.9716450
 H       -1.2807550       -1.9243000       -1.0180800
 C       -0.0480470        1.6054480        0.1306730
 N        0.9182530        2.4545760        0.6653030
 N       -0.9030420        2.4076020       -0.6319010
 C        2.0709490        1.9851450        1.3978630
 C        0.8381630        3.8923460        0.0762440
 C        3.1782710        1.4693000        0.6817820
 C        2.2194190        2.0860860        2.8125480
 C        4.3744690        1.0865390        1.3142890
 C        4.4795060        1.2221190        2.7083670
 H        5.1932480        0.6727150        0.7293370
 C        3.4122130        1.7185950        3.4685160
 H        3.4849830        1.8291800        4.5472740
 C       -0.7339070        3.9130940       -0.2578890
 C       -2.0349450        1.9372930       -1.3870660
 C       -3.2471290        1.5922060       -0.7406950
 C       -2.0391180        1.8815220       -2.8122570
 C       -4.3991730        1.2167070       -1.4566090
 C       -4.3634620        1.2143520       -2.8622390
 H       -5.3038250        0.9350250       -0.9205700
 C       -3.1912230        1.5505910       -3.5544870
 H       -3.1519450        1.5487110       -4.6411420
 Cl       -5.8403730        0.7634330       -3.8005580
 C        1.8022960        3.9051460       -1.1721620
 C        2.0516370        5.2095650       -1.9801030
 H        2.7783610        3.5995960       -0.7760570
 H        1.4962870        3.1121420       -1.8648830
 H        3.0114010        5.1112810       -2.5110480
 H        2.1208170        6.1060090       -1.3512340
 H        1.2885680        5.3961950       -2.7431340
 C        1.2383480        4.9925880        1.1110490
 C        2.7343150        5.2876550        1.3903410
 H        0.7890680        5.9304960        0.7556000
 H        0.7480870        4.7735740        2.0637250
 H        3.2698020        5.6556860        0.5075080
 H        3.2861640        4.4267830        1.7801530
 H        2.7898090        6.0769490        2.1562780
 C       -1.0818140        4.8871580       -1.4264940
 C       -2.5611070        5.2190700       -1.7494580
 H       -0.5868400        5.8388920       -1.1877400
 H       -0.6050550        4.5317020       -2.3440550
 H       -3.0847570        5.6973370       -0.9140570
 H       -3.1484890        4.3482410       -2.0561570
 H       -2.5757980        5.9283990       -2.5918270
 C       -1.6867750        4.1393270        0.9813250
 C       -1.8761830        5.5523530        1.5998880
 H       -2.6768580        3.8164680        0.6358610
 H       -1.4051270        3.4412020        1.7773420
 H       -2.8320350        5.5650710        2.1464980
 H       -1.9184730        6.3574400        0.8553650
 H       -1.0974680        5.8102950        2.3255610
 H        3.0872370        1.3366600       -0.3920260
 N        1.1454240        2.5972010        3.7056920
 O       -0.0676700        2.2749110        3.4474350
 O        1.5041660        3.3259400        4.7074200
 Cl        6.0062650        0.7397640        3.5452970
 H       -3.2738170        1.5803850        0.3440590
 N       -0.8221980        2.1309670       -3.6283140
 O        0.2700090        1.5503920       -3.2780080
 O       -0.9394170        2.8842530       -4.6655710
