83
Mol_000213_2D_DFT last geometry from G09 out file
 Ru       -0.2335230       -0.1155280       -0.5010520
 C        1.2063420       -0.0495090       -1.6065380
 Cl       -1.9315900       -0.8669170       -2.0388310
 Cl        0.5554410       -0.9482240        1.6163080
 H        1.6795510        0.8838370       -1.9244440
 H        1.6185950       -1.0108220       -1.9726450
 C       -0.3560970        1.8356920       -0.2218560
 N        0.6351830        2.6856250        0.2925640
 N       -1.5025030        2.6166770       -0.4286770
 C        0.1628030        4.1010100        0.3438400
 C        1.9393540        2.3622840        0.8714620
 C       -1.3721450        4.0204540        0.1699620
 H        0.6124800        4.6807880       -0.4730830
 H        0.4469090        4.5565440        1.2951130
 C       -2.1505140        4.2245110        1.5087740
 C       -1.9145000        5.1941870       -0.6906990
 C       -2.2366980        5.7659360        1.7013180
 H       -1.6674310        3.7176240        2.3479880
 H       -3.1481330        3.7911570        1.3985890
 C       -1.9685100        6.3916960        0.2916280
 H       -3.2262140        6.0517370        2.0880180
 H       -1.4980800        6.1222770        2.4338330
 H       -1.0130480        6.9394890        0.2880590
 H       -2.7458330        7.1129460       -0.0005750
 H       -2.9281210        4.9527090       -1.0372530
 H       -1.2951230        5.3930400       -1.5706980
 C        3.1279460        2.2025630        0.0585620
 C        2.0684080        2.2894820        2.2975430
 C        4.3224390        1.7544840        0.6844160
 C        4.3999630        1.5545840        2.0691440
 H        5.2128490        1.5948100        0.0806650
 C        3.2942310        1.8707820        2.8718460
 H        3.3604870        1.7845280        3.9557870
 C       -2.7059470        2.2727710       -1.1865100
 C       -2.7497250        2.5474130       -2.5934570
 C       -3.9071390        1.8163410       -0.5171400
 C       -3.9675920        2.3899050       -3.3035180
 C       -5.1332710        1.9598130       -2.6543430
 H       -3.9791040        2.5883280       -4.3743360
 C       -5.0958080        1.6696350       -1.2856330
 H       -5.9948590        1.2909620       -0.8057030
 N        3.1531850        2.4689780       -1.3537040
 C        3.0212370        3.8765640       -1.7981890
 C        4.1409150        1.7446260       -2.1810680
 H        2.5167390        3.9257580       -2.7736050
 H        4.0153870        4.3600470       -1.8938880
 H        2.4471530        4.4591600       -1.0782940
 H        3.8294670        1.8113690       -3.2345830
 H        4.1759660        0.6850060       -1.9020820
 H        5.1667900        2.1615180       -2.1143650
 C        1.0273010        2.7042420        3.3154930
 C        0.0544530        1.8175980        3.8377910
 C        1.1574550        3.9879210        3.9132360
 C       -0.7711810        2.2105840        4.9140510
 H       -0.0345910        0.8195540        3.4172370
 C       -0.6415420        3.4913640        5.4921900
 H       -1.5047610        1.5053400        5.3100330
 C        0.3295030        4.3818890        4.9851970
 H       -1.2761730        3.7864310        6.3299510
 H        0.4534370        5.3711040        5.4304710
 H        1.9292730        4.6706940        3.5519530
 H        5.3289270        1.2043070        2.5218650
 C       -1.6051390        3.0204390       -3.4602970
 C       -0.5627580        2.1505370       -3.8654340
 C       -1.6730330        4.3037090       -4.0677750
 C        0.3897680        2.5589690       -4.8237190
 H       -0.5295360        1.1421860       -3.4652680
 C        0.3250530        3.8452130       -5.4004420
 H        1.1673530        1.8585860       -5.1361690
 C       -0.7161960        4.7182360       -5.0166480
 H        1.0570400        4.1543930       -6.1492280
 H       -0.7942840        5.7105720       -5.4654370
 H       -2.4894570        4.9775530       -3.8049610
 N       -3.9874550        1.5693250        0.8872400
 C       -5.3018390        1.6855480        1.5451480
 C       -3.1379050        0.5417610        1.5184170
 H       -5.9445810        0.7890670        1.4262040
 H       -5.8492000        2.5573200        1.1640620
 H       -5.1387640        1.8308780        2.6240310
 H       -2.1107560        0.6142830        1.1674770
 H       -3.5050770       -0.4833620        1.3176890
 H       -3.1210760        0.6981380        2.6063890
 H       -6.0588710        1.8240770       -3.2163970
