73
M00000069_2D_DFT last geometry from G09 out file
Ru        0.4222000       -0.1632980       -0.2040880
C       -1.2259840       -0.8686270       -0.4990060
Cl        0.6651140       -0.8169040        2.0994670
Cl        1.3021750       -0.1641880       -2.4620240
H       -2.1939480       -0.3610260       -0.5311050
H       -1.2418240       -1.9686130       -0.6524000
C        0.1345560        1.7617990       -0.1702130
N        1.2075110        2.6403260        0.0771310
N       -0.9753340        2.5164320       -0.5193410
C        0.8792510        4.0597400       -0.3433560
C        2.1218650        2.5161340        1.2142590
C       -0.6572080        3.9971460       -0.6595450
H        1.0537010        4.6984210        0.5292580
H       -0.8082520        4.2326130       -1.7203020
C        1.5266190        2.3619340        2.4900400
C        3.5435840        2.7346880        1.1175160
C        2.2694970        2.4302380        3.6806150
C        3.6525430        2.6839590        3.6004840
H        1.7763070        2.2879650        4.6421050
C        4.2680640        2.8239440        2.3458870
H        5.3449000        2.9740310        2.3091810
C       -2.1778680        2.0669670       -1.2042970
C       -2.0572920        1.7747440       -2.5828980
C       -3.4702570        2.0475210       -0.5671070
C       -3.1779740        1.4894840       -3.3832530
C       -4.4559250        1.5129630       -2.7863310
H       -3.0534560        1.2610930       -4.4416810
C       -4.5929450        1.7774600       -1.4137860
H       -5.5878610        1.7436830       -0.9749970
H       -1.0624570        1.7687520       -3.0243810
N       -3.6765730        2.3109950        0.8040580
C       -4.9929550        2.7784360        1.2629020
C       -2.8923650        1.6474210        1.8625820
H       -4.8652350        3.2879600        2.2290710
H       -5.7257480        1.9590110        1.4111580
H       -5.4138830        3.5043440        0.5560720
H       -1.9565410        1.2475530        1.4786910
H       -3.4605070        0.8043900        2.3030000
H       -2.6634990        2.3572820        2.6725000
C        1.6699450        4.6396270       -1.5187610
C        2.1919010        5.9505600       -1.4056240
C        1.8053030        3.9584370       -2.7533360
C        2.8337560        6.5719050       -2.4979840
H        2.0966020        6.4915100       -0.4615040
C        2.9633990        5.8861780       -3.7244380
H        3.2288400        7.5839740       -2.3915020
C        2.4494260        4.5754690       -3.8440960
H        3.4583520        6.3631290       -4.5723840
H        2.5520350        4.0324720       -4.7855820
H        1.4395310        2.9381990       -2.8597570
H       -5.3465900        1.3021820       -3.3815440
C       -1.5219570        4.9650910        0.1497100
C       -2.4207930        5.8155320       -0.5376340
C       -1.4147750        5.0946180        1.5569020
C       -3.1968520        6.7677620        0.1565940
H       -2.5139180        5.7367130       -1.6226870
C       -3.0821630        6.8862730        1.5574380
H       -3.8800790        7.4166960       -0.3942180
C       -2.1872360        6.0436030        2.2542860
H       -3.6746760        7.6266130        2.0979980
H       -2.0871320        6.1319370        3.3378090
H       -0.7301200        4.4582550        2.1168800
H        0.4560930        2.1806440        2.5425440
N        4.2259440        2.9065480       -0.1122360
C        5.5028420        3.6373460       -0.1239790
C        4.1525460        1.8454640       -1.1353510
H        5.4445680        4.5254440        0.5185060
H        5.6987260        3.9761420       -1.1516790
H        6.3713560        3.0253920        0.1978010
H        3.1566870        1.4110590       -1.1825550
H        4.8784190        1.0329710       -0.9274910
H        4.3792150        2.2655940       -2.1246300
H        4.2579070        2.7474890        4.5067410
