85
M00000409_2D_DFT last geometry from G09 out file
 Ru        0.3604380       -0.2949170       -0.5857270
 C       -1.2361010       -1.1574630       -0.5811420
 Cl        1.0352630       -1.0710040        1.6118500
 Cl        0.7385660       -0.2782700       -2.9826100
 H       -2.2452350       -0.7990860       -0.3883880
 H       -1.1509380       -2.2469330       -0.7813890
 C       -0.0078490        1.6058750       -0.2848730
 N        0.9766190        2.4544730        0.2627360
 N       -1.0667010        2.4117830       -0.7228570
 C        0.6911460        3.9370110       -0.0139480
 C        1.9260100        2.0970690        1.3364100
 C       -0.7597110        3.9167070       -0.6465690
 H        0.6553810        4.4448060        0.9589770
 H       -0.6789420        4.2611200       -1.6835600
 C        1.5271780        2.3130980        2.6918920
 C        3.2615370        1.6074110        1.1313960
 C        2.4705930        2.1984400        3.7398320
 C        3.8093640        1.8290410        3.5295960
 H        2.1215240        2.3767850        4.7592020
 C        4.1679580        1.4988410        2.2098970
 H        5.1683250        1.1171090        2.0143250
 C       -2.1979810        1.9197110       -1.5077840
 C       -2.1853460        2.0574640       -2.9324340
 C       -3.3689650        1.3448560       -0.9081800
 C       -3.3020050        1.6297310       -3.6874610
 C       -4.4575100        1.0725500       -3.1082800
 H       -3.2498480        1.7273770       -4.7732140
 C       -4.4650130        0.9392690       -1.7081970
 H       -5.3348090        0.4998600       -1.2228150
 C       -1.0258980        2.6499290       -3.7108180
 H       -0.0650010        2.4448930       -3.2417400
 H       -1.1450040        3.7390880       -3.8350070
 H       -0.9880330        2.2128780       -4.7160950
 C       -3.6419750        1.1473210        0.5704710
 F       -4.5706280        2.1157230        1.0722560
 F       -2.5424480        1.1830220        1.4367050
 F       -4.2762980       -0.1054310        0.8285050
 C        1.8476840        4.6715790       -0.8685630
 C        3.0746940        4.9324850        0.0625330
 C        2.2642470        3.8688940       -2.1343880
 C        1.4393830        6.0865920       -1.3862470
 H        3.8145160        5.5467790       -0.4713270
 H        3.5851260        4.0250090        0.3812040
 H        2.7730530        5.4897290        0.9638720
 H        3.2405080        4.2262400       -2.4911590
 H        1.5493190        4.0234580       -2.9528180
 H        2.3493990        2.7981560       -1.9614510
 H        1.2742030        6.8081960       -0.5780090
 H        0.5552860        6.0705900       -2.0338760
 H        2.2712590        6.4684420       -1.9965300
 C       -5.6533080        0.6505670       -3.9505510
 C       -6.6791510        1.7962190       -4.1720180
 H       -6.1660390       -0.1968250       -3.4690360
 H       -5.3041690        0.2913440       -4.9313530
 H       -7.5216870        1.4416110       -4.7853350
 H       -6.2179370        2.6508180       -4.6895110
 H       -7.0841210        2.1597870       -3.2156980
 C       -1.8873180        4.8723150        0.0029400
 C       -2.2741600        4.5453990        1.4691760
 C       -1.4088660        6.3584120        0.0214150
 C       -3.1722120        4.8725580       -0.8877140
 H       -2.5263130        3.4997490        1.6280630
 H       -3.1563570        5.1404980        1.7473800
 H       -1.4715850        4.8182410        2.1649780
 H       -2.1991760        6.9629940        0.4899410
 H       -1.2419260        6.7645870       -0.9829550
 H       -0.5005880        6.5029600        0.6168480
 H       -3.8235990        5.7020730       -0.5752300
 H       -3.7607550        3.9577760       -0.8022200
 H       -2.9307820        5.0311080       -1.9494130
 C        0.0977030        2.5807680        3.1150880
 H       -0.0105100        3.5711470        3.5825530
 H       -0.1951450        1.8331980        3.8669860
 H       -0.6072410        2.4996090        2.2951570
 C        3.8543800        1.1150960       -0.1677950
 F        4.7025490        2.0750390       -0.8068880
 F        2.9112870        0.7255860       -1.1363840
 F        4.6866220       -0.0174940        0.0163480
 C        4.8167860        1.7559240        4.6675390
 C        5.6039400        3.0796680        4.8719920
 H        5.5338540        0.9423470        4.4755050
 H        4.2972080        1.5026270        5.6049750
 H        6.3187880        2.9757330        5.7028150
 H        4.9265800        3.9142880        5.1082000
 H        6.1704070        3.3506850        3.9683990
