91
M00000372_2D_DFT last geometry from G09 out file
 Ru        0.2174630        0.2753790       -0.8918280
 C       -1.3314550       -0.4848410       -1.4500100
 Cl        0.3487430       -0.7019680        1.3094090
 Cl        1.1700600        0.6315720       -3.1148650
 H       -2.3160300       -0.0444300       -1.6085050
 H       -1.2283820       -1.5667070       -1.6872400
 C       -0.1190900        2.1659700       -0.4754360
 N        0.8640690        2.9278120        0.1744870
 N       -1.1237110        3.0155910       -0.9068770
 C        0.6564820        4.4319340       -0.0398020
 C        1.8103260        2.4381950        1.1953570
 C       -0.7751790        4.5082170       -0.7209610
 H        0.6178140        4.9010280        0.9528890
 H       -0.6563930        4.8919540       -1.7376320
 C        1.5312820        2.6852470        2.5833140
 C        3.0632970        1.8258920        0.8711650
 C        2.5086540        2.4391980        3.5760160
 C        3.7622160        1.8837780        3.2603290
 H        2.2609790        2.6613590        4.6114070
 C        3.9926030        1.5691830        1.9112270
 H        4.9455250        1.1159550        1.6408610
 C       -2.3302570        2.5551950       -1.5897020
 C       -2.4871650        2.6551800       -3.0127760
 C       -3.4030660        1.9777970       -0.8284850
 C       -3.6962200        2.2522640       -3.6297270
 C       -4.7871310        1.7644700       -2.8854570
 H       -3.7719360        2.3257390       -4.7125260
 C       -4.6027730        1.6265060       -1.4966090
 H       -5.4212930        1.2244920       -0.8999590
 C       -1.4454220        3.1937900       -3.9545860
 O       -1.4160240        2.4503750       -5.1300210
 O       -0.7245150        4.2031770       -3.7856560
 C       -0.4039170        2.8388030       -6.1389290
 H       -0.5770800        2.1544480       -6.9761700
 H       -0.5421510        3.8850990       -6.4451130
 H        0.6012540        2.6990310       -5.7225390
 C       -3.3525930        1.7406800        0.6824130
 C       -3.8166900        0.3447890        1.1742220
 H       -4.0027000        2.4928000        1.1628590
 H       -2.3478580        1.9057250        1.0658030
 H       -4.8631480        0.1212780        0.9192440
 H       -3.7286990        0.3112190        2.2705450
 H       -3.1814740       -0.4557200        0.7751840
 C        1.8750040        5.1413770       -0.8245340
 C        3.1242160        5.2091520        0.1109440
 C        2.2304190        4.4347400       -2.1609800
 C        1.5700240        6.6259340       -1.1942980
 H        3.8945790        5.8400140       -0.3574480
 H        3.5751800        4.2352130        0.3041210
 H        2.8742700        5.6637320        1.0826210
 H        2.3599780        3.3595730       -2.0531500
 H        3.1720820        4.8508460       -2.5514690
 H        1.4563750        4.5984310       -2.9173690
 H        1.4235450        7.2632450       -0.3131330
 H        0.7067840        6.7290780       -1.8593900
 H        2.4405800        7.0217250       -1.7384250
 C       -6.1006440        1.4042280       -3.5572350
 H       -6.7413430        2.2946610       -3.6739970
 H       -6.6676520        0.6677220       -2.9708820
 H       -5.9387510        0.9872280       -4.5617150
 C       -1.8860840        5.4541900       -0.0418060
 C       -2.2252630        5.1179500        1.4314790
 C       -1.4011450        6.9382360       -0.0401830
 C       -3.1977090        5.4650560       -0.8918830
 H       -1.3834990        5.3528610        2.0956980
 H       -2.4873140        4.0732840        1.5810020
 H       -3.0755900        5.7376110        1.7565190
 H       -2.1899260        7.5556240        0.4148670
 H       -1.2255820        7.3251480       -1.0514960
 H       -0.4950650        7.0848430        0.5566230
 H       -2.9849600        5.6129500       -1.9600290
 H       -3.8297080        6.3036770       -0.5624910
 H       -3.7896260        4.5538740       -0.7836400
 C        0.1779240        3.0221100        3.1311260
 O        0.2773200        3.8959820        4.2320340
 O       -0.9121010        2.5410660        2.7673930
 C       -0.9438530        4.0762650        5.0487220
 H       -0.6412600        4.7614790        5.8483260
 H       -1.7556240        4.5084980        4.4511830
 H       -1.2719610        3.1121980        5.4626630
 C        3.5194160        1.4529460       -0.5386720
 C        4.1399820        0.0384060       -0.6842000
 H        4.2674280        2.1910510       -0.8761410
 H        2.6946090        1.5300400       -1.2471550
 H        3.4781750       -0.7357410       -0.2724070
 H        5.1167140       -0.0506070       -0.1871320
 H        4.2911630       -0.1774060       -1.7517530
 C        4.7924290        1.5921020        4.3369740
 H        4.7210450        2.3056130        5.1703230
 H        5.8165140        1.6341000        3.9394720
 H        4.6452970        0.5825410        4.7564020
