91
M00000371_2D_DFT last geometry from G09 out file
 Ru        0.0542210       -0.0384620        0.0732380
 C       -1.5458350       -0.7373560       -0.4236590
 Cl       -0.1642400       -0.2940520        2.4646160
 Cl        1.2638320       -0.4731990       -1.9823700
 H       -2.4459760       -0.2269570       -0.7713910
 H       -1.5959360       -1.8465580       -0.3663790
 C       -0.1267620        1.8959950       -0.1648030
 N        0.9293390        2.7502210        0.1645900
 N       -1.1360370        2.6691540       -0.7195730
 C        0.6226920        4.2056940       -0.1411900
 C        1.9918870        2.4465830        1.1322080
 C       -0.7007910        4.1116690       -0.9602490
 H        0.4279180        4.6911800        0.8228070
 H       -0.4631220        4.1739830       -2.0289810
 C        1.7329300        2.6692090        2.5241770
 C        3.2915300        2.0238870        0.7044480
 C        2.7612050        2.4288360        3.4591600
 C        4.0434620        1.9840290        3.0737450
 H        2.5355460        2.5801820        4.5152550
 C        4.2770140        1.7971510        1.6971570
 H        5.2642670        1.4641790        1.3807220
 C       -2.3751390        2.2067940       -1.3253490
 C       -2.4214480        1.9387480       -2.7305120
 C       -3.5592970        2.1001630       -0.5325670
 C       -3.6565530        1.5739280       -3.3115070
 C       -4.8504620        1.4782970       -2.5602710
 H       -3.6736420        1.3610810       -4.3809420
 C       -4.7697780        1.7447040       -1.1779700
 H       -5.6776230        1.6782880       -0.5761960
 C       -1.1980110        2.0231910       -3.6302540
 H       -0.2841170        1.7001100       -3.1239920
 H       -1.0436180        3.0488700       -4.0047650
 H       -1.3278160        1.3793640       -4.5103880
 C       -3.5953780        2.3721360        0.9727240
 C       -4.0865930        1.1883030        1.8476410
 H       -4.2639770        3.2326500        1.1527140
 H       -2.6021930        2.6671540        1.3221960
 H       -3.4047390        0.3319010        1.7792580
 H       -5.0955140        0.8549420        1.5644900
 H       -4.1222260        1.4980780        2.9037030
 C        1.8396080        4.9668920       -0.7821420
 C        1.8727410        6.4631760       -0.3710150
 C        2.0039950        4.8091480       -2.3136720
 H        2.7244590        4.5168890       -0.3110170
 H        1.0374550        7.0381280       -0.7924090
 H        2.8035180        6.9277720       -0.7306980
 H        1.8497240        6.5801470        0.7236730
 H        1.2607460        5.3959460       -2.8733140
 H        1.9281650        3.7614220       -2.6323160
 H        2.9964150        5.1747880       -2.6184150
 C       -6.1891000        1.0930280       -3.2050540
 C       -6.1641170       -0.3500110       -3.7832080
 C       -6.6422330        2.1221750       -4.2782020
 H       -6.9498840        1.1055550       -2.4061240
 H       -5.8872600       -1.0822660       -3.0099200
 H       -5.4429150       -0.4440350       -4.6087280
 H       -7.1569080       -0.6244720       -4.1725720
 H       -6.6991620        3.1368450       -3.8558630
 H       -7.6384770        1.8580140       -4.6658480
 H       -5.9485670        2.1507420       -5.1317670
 C       -1.8381170        5.1698970       -0.6956820
 C       -1.8463080        6.2771510       -1.7848040
 C       -1.8884230        5.7968580        0.7199900
 H       -2.7795700        4.6201150       -0.8321700
 H       -1.9309760        5.8459240       -2.7941720
 H       -0.9440350        6.9030570       -1.7584650
 H       -2.7110980        6.9421200       -1.6384810
 H       -2.8209910        6.3714420        0.8303250
 H       -1.0575590        6.4943800        0.8968290
 H       -1.8766920        5.0398330        1.5140750
 C        0.4001500        3.1646640        3.0653200
 H        0.3883980        4.2645430        3.1494600
 H        0.2291150        2.7602580        4.0708020
 H       -0.4453000        2.8540190        2.4484800
 C        3.6878660        1.8763180       -0.7677900
 C        4.6644110        0.7233030       -1.1024530
 H        4.1608220        2.8212580       -1.0905840
 H        2.7906670        1.7528370       -1.3789920
 H        5.6630150        0.8712610       -0.6653600
 H        4.7912630        0.6597030       -2.1938600
 H        4.2723530       -0.2430750       -0.7592420
 C        5.1479170        1.6955420        4.0992720
 C        4.7752820        0.5039360        5.0262480
 C        5.5337440        2.9541010        4.9252650
 H        6.0459010        1.3940670        3.5336040
 H        3.8987140        0.7351780        5.6495840
 H        5.6136350        0.2633500        5.6988300
 H        4.5381730       -0.3948860        4.4380020
 H        5.8362920        3.7832910        4.2676670
 H        6.3758810        2.7277070        5.5978750
 H        4.6959460        3.3046920        5.5464980
