87
M00000516_2D_DFT last geometry from G09 out file
 Ru        0.3681060        0.1133270       -0.3537350
 C       -1.1783230       -0.7749420       -0.6834130
 Cl        0.6858930       -0.6125790        1.9266850
 Cl        1.2442240        0.2238220       -2.6090000
 H       -2.2090120       -0.4203770       -0.6708090
 H       -1.0325080       -1.8572820       -0.8893880
 C       -0.0302210        2.0274470       -0.2144060
 N        0.9507350        2.9052660        0.2652690
 N       -1.0946360        2.7829750       -0.6925190
 C        0.6220530        4.3727170       -0.0335400
 C        1.9467460        2.5224420        1.2850300
 C       -0.8380920        4.2965500       -0.6514460
 H        0.5857030        4.9039540        0.9254190
 H       -0.7736960        4.6303290       -1.6942820
 C        1.6428260        2.8072900        2.6585100
 C        3.1743590        1.8371590        0.9901450
 C        2.5954110        2.5288460        3.6587390
 C        3.8230320        1.8958750        3.3790820
 H        2.3672310        2.7667940        4.6967450
 C        4.0643320        1.5176930        2.0450970
 H        4.9778380        0.9825750        1.7995720
 C       -2.2442620        2.2164170       -1.3849750
 C       -2.2864000        2.2660540       -2.8129740
 C       -3.3741800        1.6647940       -0.6688330
 C       -3.4267770        1.7734070       -3.4925290
 C       -4.5454050        1.2534900       -2.8119090
 H       -3.4161460        1.8029030       -4.5809840
 C       -4.4946360        1.2163730       -1.4025150
 H       -5.3600190        0.8053320       -0.8910080
 C       -1.1598990        2.8140200       -3.6677390
 H       -1.1873120        2.3587090       -4.6660840
 H       -0.1790450        2.6006110       -3.2426010
 H       -1.2555870        3.9026060       -3.8086230
 C       -3.4485370        1.4929530        0.8380380
 C       -4.8215530        1.3348610        1.5011450
 O       -2.4173010        1.4612660        1.5570390
 H       -5.2285620        0.3252570        1.3307300
 H       -4.6903380        1.4618550        2.5818120
 H       -5.5603320        2.0589980        1.1304050
 C        1.7319000        5.1207700       -0.9226410
 C        3.0595830        5.2224750       -0.1085920
 C        1.9715650        4.4281120       -2.2930990
 C        1.3389610        6.5967450       -1.2392980
 H        3.5711520        4.2658560       -0.0222040
 H        2.8843000        5.6320910        0.8990090
 H        3.7484050        5.9071020       -0.6252030
 H        2.0754130        3.3468790       -2.2094610
 H        2.9050820        4.8044980       -2.7342360
 H        1.1641610        4.6595810       -3.0018060
 H        2.1463630        7.0341820       -1.8446580
 H        1.2381940        7.2151440       -0.3376480
 H        0.4207480        6.6789170       -1.8307180
 C       -5.7815480        0.7325990       -3.5088910
 C       -5.8370000        0.7282300       -5.0337600
 O       -6.7568360        0.3056230       -2.8305370
 H       -5.0235570        0.1202800       -5.4596840
 H       -6.7982100        0.3121530       -5.3547290
 H       -5.7351810        1.7466440       -5.4403530
 C       -2.0083070        5.2068180       -0.0100920
 C       -2.4152490        4.8387790        1.4426130
 C       -1.5948700        6.7110690        0.0379380
 C       -3.2730040        5.1699830       -0.9304890
 H       -2.5258830        3.7685950        1.6003880
 H       -3.3748810        5.3215570        1.6816590
 H       -1.6843890        5.2112480        2.1698500
 H       -2.4097450        7.2706080        0.5205580
 H       -1.4498900        7.1450640       -0.9585760
 H       -0.6916920        6.8842660        0.6320830
 H       -3.9585090        5.9759450       -0.6296600
 H       -3.8318130        4.2338060       -0.8660660
 H       -3.0133510        5.3429760       -1.9858550
 C        0.3020610        3.3340550        3.1289850
 H       -0.5223380        2.9038620        2.5585380
 H        0.2439240        4.4307750        3.0679180
 H        0.1487900        3.0655700        4.1817270
 C        3.7568540        1.4432410       -0.3683890
 C        4.2710230        0.0092660       -0.5344300
 O        3.9295030        2.2821800       -1.2839780
 H        4.0821110       -0.3029360       -1.5675700
 H        5.3629300       -0.0105530       -0.3806790
 H        3.8034640       -0.6985080        0.1590800
 C        4.7862760        1.6190440        4.5081510
 C        6.0482930        0.8028720        4.2345250
 O        4.5478580        2.0554020        5.6684170
 H        6.6915210        1.2981900        3.4902160
 H        6.6096320        0.6911700        5.1687430
 H        5.7975750       -0.1960120        3.8447530
