103
M00000518_2D_DFT last geometry from G09 out file
 Ru        0.4636120       -0.6438240       -0.6100470
 C       -0.9758370       -1.4634470       -1.3467520
 Cl        0.1979770       -1.3814020        1.6752270
 Cl        1.6649550       -0.4626090       -2.7376900
 H       -1.8986510       -1.0401290       -1.7451040
 H       -0.8496750       -2.5645440       -1.4468210
 C        0.0540800        1.2627400       -0.4069380
 N        0.9916390        2.1077050        0.2021110
 N       -0.9958440        2.0283560       -0.8916890
 C        0.6760120        3.5828310       -0.0515900
 C        1.9177600        1.6931290        1.2874980
 C       -0.7449820        3.5363270       -0.7545570
 H        0.5880540        4.0702970        0.9282220
 H       -0.6284520        3.9190890       -1.7754970
 C        1.4700720        1.8326770        2.6419580
 C        3.2442700        1.1990420        1.0457060
 C        2.3580610        1.5638930        3.7053980
 C        3.6828760        1.1375630        3.4938440
 H        1.9862200        1.6669080        4.7269140
 C        4.0829930        0.9462390        2.1588890
 H        5.0912730        0.5812620        1.9687560
 C       -2.1135150        1.5061730       -1.6820610
 C       -2.0942500        1.6530630       -3.1049970
 C       -3.2409550        0.8851890       -1.0455250
 C       -3.2262150        1.2532350       -3.8522900
 C       -4.3793910        0.7112100       -3.2482400
 H       -3.1952630        1.3648910       -4.9378300
 C       -4.3480530        0.5232900       -1.8506630
 H       -5.2138100        0.0704260       -1.3678680
 C       -0.9038340        2.1998950       -3.8742950
 H       -0.9257560        1.8346880       -4.9095620
 H        0.0463820        1.8833830       -3.4384840
 H       -0.9183690        3.3009790       -3.9252480
 C       -3.3305050        0.5930050        0.4570860
 C       -3.8524000       -0.8120100        0.8542780
 H       -4.0077360        1.3345900        0.9145620
 H       -2.3507700        0.7232270        0.9227480
 H       -3.8440680       -0.9017000        1.9512310
 H       -3.2112420       -1.6089610        0.4576870
 H       -4.8827330       -0.9946890        0.5172250
 C        1.8376300        4.3685070       -0.8439570
 C        3.0650170        4.5553710        0.1021850
 C        2.2556200        3.6551140       -2.1601280
 C        1.4231830        5.8162670       -1.2528120
 H        2.7713840        5.0670430        1.0324160
 H        3.8192890        5.1844400       -0.3940910
 H        3.5459110        3.6178340        0.3787650
 H        3.1961120        4.0892710       -2.5311270
 H        1.5053710        3.7991210       -2.9483860
 H        2.4069980        2.5837650       -2.0365110
 H        2.2652380        6.2665670       -1.7995330
 H        1.2166570        6.4594940       -0.3889220
 H        0.5587990        5.8408130       -1.9263420
 C       -5.6093140        0.3480940       -4.0701060
 C       -6.6181060        1.5243870       -4.2244630
 H       -5.3004220        0.0173060       -5.0752800
 H       -6.1317440       -0.5033580       -3.6040900
 C       -7.8646420        1.1488220       -5.0608440
 H       -6.9358390        1.8624520       -3.2234090
 H       -6.1055680        2.3812870       -4.6937290
 C       -8.8688370        2.3124180       -5.2171800
 H       -8.3736410        0.2889110       -4.5905220
 H       -7.5432020        0.8080710       -6.0609800
 H       -8.4039210        3.1765590       -5.7182950
 H       -9.2401170        2.6539990       -4.2376410
 H       -9.7405450        2.0070080       -5.8172860
 C       -1.9432980        4.4183050       -0.1309180
 C       -2.4304930        3.9656470        1.2709230
 C       -1.5194330        5.9115900        0.0322800
 C       -3.1571400        4.4422890       -1.1159440
 H       -3.3789380        4.4725900        1.5044120
 H       -1.7176670        4.2444500        2.0550790
 H       -2.6037010        2.8931890        1.3322930
 H       -2.3575120        6.4554000        0.4930220
 H       -1.3050970        6.3986770       -0.9261060
 H       -0.6539040        6.0370960        0.6927560
 H       -3.7022890        3.4967050       -1.1497280
 H       -2.8425670        4.6898920       -2.1407870
 H       -3.8657640        5.2208160       -0.7950780
 C        0.0567060        2.2217240        3.0290170
 H       -0.6715920        1.9365390        2.2711470
 H       -0.0322830        3.3046820        3.2078850
 H       -0.2252210        1.7175080        3.9627450
 C        3.8516740        0.9488620       -0.3366850
 C        4.6759500       -0.3559560       -0.4833680
 H        4.5117280        1.7953140       -0.5948440
 H        3.0714520        0.9295100       -1.0966840
 H        4.0996880       -1.2344480       -0.1606050
 H        5.6143160       -0.3348580        0.0894700
 H        4.9370630       -0.4995280       -1.5420100
 C        4.6366860        0.8927490        4.6553360
 C        5.4198470        2.1655430        5.0921770
 H        4.0739600        0.5117940        5.5234990
 H        5.3622400        0.1095380        4.3818880
 C        6.3849890        1.9092960        6.2742250
 H        5.9895000        2.5532500        4.2304320
 H        4.7012350        2.9553860        5.3700740
 C        7.1638620        3.1695420        6.7125860
 H        7.1016960        1.1170900        5.9941260
 H        5.8124360        1.5174230        7.1335590
 H        7.8390840        2.9472360        7.5541200
 H        6.4789160        3.9700110        7.0355530
 H        7.7768310        3.5670050        5.8877280
