49
M00000517_2D_DFT last geometry from G09 out file
 Ru        0.3103510        0.0135000        0.0923550
 C       -0.9165100       -0.7763830       -0.9925800
 Cl       -0.6590920       -0.2960650        2.2586560
 Cl        2.2196240       -0.2333210       -1.3560460
 H       -1.6107680       -0.3332120       -1.7091550
 H       -0.9061170       -1.8853400       -0.9410850
 C       -0.0005690        1.9030700       -0.1106660
 N        0.8244370        2.8417760        0.5342440
 N       -0.9102690        2.6400260       -0.8767330
 C        0.6227290        4.2222440        0.0468310
 C        1.8046640        2.5196450        1.5616890
 C       -0.6559930        4.1072380       -0.8319870
 H        0.4988400        4.9271980        0.8750460
 H       -0.4835310        4.4988850       -1.8398640
 C        1.5836750        2.7845320        2.9485710
 C        3.0285130        1.9480690        1.1560590
 C        2.5873840        2.4409280        3.8815720
 C        3.7920760        1.8409760        3.4665320
 H        2.4200760        2.6340890        4.9387790
 C        4.0146010        1.5976290        2.0997220
 H        4.9453960        1.1441990        1.7585510
 C       -2.1093330        2.1248200       -1.5033800
 C       -2.2903470        2.0693740       -2.9169250
 C       -3.1576520        1.7103610       -0.6511690
 C       -3.5293070        1.6233920       -3.4341690
 C       -4.5683780        1.2167100       -2.5755760
 H       -3.6735110        1.5822750       -4.5116050
 C       -4.3785340        1.2514120       -1.1798250
 H       -5.1733700        0.9346030       -0.5042310
 C       -1.2140130        2.4696720       -3.9043360
 F       -1.5038780        2.0558680       -5.2193210
 F        0.0588550        1.9524990       -3.5963790
 F       -1.0487590        3.8921640       -3.9837050
 H       -3.0028850        1.7467820        0.4250180
 C        1.8290650        4.7637840       -0.7792790
 F        2.2538130        3.8887040       -1.7927120
 F        1.4888760        5.9870290       -1.4004880
 F        2.9390100        5.0253560        0.0458650
 H       -5.5136850        0.8752340       -2.9974570
 C       -1.8395540        4.9604420       -0.2808240
 F       -2.4044390        4.4753960        0.9085200
 F       -1.4036910        6.2795300       -0.0270110
 F       -2.8816660        5.0587630       -1.2253810
 C        0.3509860        3.4799930        3.4838250
 F        0.2279630        3.3846320        4.8813740
 F       -0.8672900        3.0323490        2.9477410
 F        0.3931710        4.8952490        3.2040960
 H        3.2009430        1.7690340        0.0994860
 H        4.5454940        1.5752910        4.2081580
