67
M00000515_2D_DFT last geometry from G09 out file
 Ru        0.2014940       -0.1962750        0.0816280
 C       -0.4645730       -0.7375580       -1.5225020
 Cl       -1.6092910       -0.5702070        1.6327790
 Cl        2.5514370       -0.3857190       -0.4303230
 H       -0.7251170       -0.1145930       -2.3855490
 H       -0.5565740       -1.8339440       -1.6619720
 C        0.0511630        1.7153810       -0.1566350
 N        0.9750370        2.6124170        0.3999100
 N       -0.8223560        2.4693870       -0.9286140
 C        0.8876280        3.9595970       -0.2268860
 C        1.7577180        2.3924940        1.5756650
 C       -0.5513080        3.9490720       -0.8306160
 H        0.9681190        4.7338430        0.5434050
 H       -0.5344160        4.3848080       -1.8339330
 C        1.2759380        1.5590510        2.6175650
 C        3.0035150        3.0506670        1.7427390
 C        2.0464140        1.3504470        3.7710630
 C        3.3000770        1.9902950        3.9342030
 H        1.6718060        0.7070570        4.5663980
 C        3.7603340        2.8525060        2.9070930
 H        4.7191570        3.3539950        3.0189740
 C       -1.9995080        2.0498050       -1.6481380
 C       -2.0933640        2.3299860       -3.0345680
 C       -3.0866640        1.4401730       -0.9804140
 C       -3.2572020        1.9959520       -3.7455090
 C       -4.3470280        1.3728880       -3.0852480
 H       -3.3333880        2.2005000       -4.8127330
 C       -4.2461730        1.0963180       -1.6988980
 H       -5.0774040        0.6204170       -1.1835410
 H       -1.2515490        2.7851250       -3.5572540
 H       -3.0174420        1.2281680        0.0825370
 C        1.9404810        4.2451780       -1.3122950
 C        2.7925600        3.2674880       -1.8719960
 N        1.9506910        5.5534790       -1.7139900
 C        3.6957660        3.6628710       -2.8827320
 H        2.7640280        2.2368170       -1.5267640
 C        3.7210400        5.0096110       -3.3013380
 H        4.3671280        2.9279930       -3.3289700
 C        2.8282880        5.9161480       -2.6884580
 H        4.4081240        5.3514520       -4.0756010
 H        2.8096610        6.9688060       -2.9780140
 C       -5.5600630        1.0360870       -3.8921610
 O       -6.5478070        0.4172320       -3.1225120
 O       -5.6986240        1.2707580       -5.1157260
 C       -7.7912140        0.0347380       -3.8268790
 H       -8.4156870       -0.4271440       -3.0547280
 H       -8.2806360        0.9223200       -4.2509010
 H       -7.5708990       -0.6781010       -4.6332730
 C       -1.5981590        4.6890400        0.0072460
 C       -2.3620610        5.7393080       -0.5494720
 N       -1.7326440        4.2930600        1.3078570
 C       -3.3061760        6.4019770        0.2641130
 H       -2.2228460        6.0336360       -1.5898100
 C       -3.4551650        5.9955850        1.6059850
 H       -3.9102190        7.2146190       -0.1414460
 C       -2.6453710        4.9390880        2.0808700
 H       -4.1735340        6.4785840        2.2685070
 H       -2.7236590        4.5933360        3.1132950
 H        0.2827810        1.1194560        2.5562580
 H        3.3995920        3.6936950        0.9610370
 C        4.0710590        1.7400860        5.1853670
 O        5.2869860        2.4384620        5.2042350
 O        3.7049060        1.0000450        6.1284010
 C        6.1324780        2.2463310        6.4009760
 H        7.0185880        2.8639530        6.2174150
 H        5.6025370        2.5779710        7.3046940
 H        6.4073930        1.1882780        6.5118850
