71
M00000434_2D_DFT last geometry from G09 out file
 Ru        0.4412950        0.1593380       -0.3887210
 C       -0.7034680       -0.4962490       -1.6378500
 Cl       -0.6695540       -0.3495330        1.7086800
 Cl        2.4180600        0.2816350       -1.7644560
 H       -1.3727000        0.0539270       -2.3057460
 H       -0.6676200       -1.5985040       -1.7715340
 C        0.0224130        2.0509170       -0.3986270
 N        0.9400430        2.9879350        0.0691610
 N       -1.1021670        2.7568930       -0.8150760
 C        0.5183090        4.3719080       -0.2532210
 C        2.1988310        2.7367440        0.7172410
 C       -1.0110800        4.2354470       -0.4603600
 H        1.0148420        4.7195510       -1.1742620
 H        0.7781460        5.0502280        0.5670490
 C       -1.8254410        4.6061920        0.8213050
 C       -1.5632190        5.2377500       -1.5059900
 C       -1.9986050        6.1531390        0.7597710
 H       -1.3262750        4.2616210        1.7373950
 H       -2.8048480        4.1119130        0.7763610
 C       -1.6732960        6.5682850       -0.7166880
 H       -3.0231070        6.4383450        1.0394150
 H       -1.3257610        6.6628000        1.4648780
 H       -0.7231350        7.1224280       -0.7596920
 H       -2.4441860        7.2261080       -1.1429810
 H       -2.5623710        4.9184000       -1.8301210
 H       -0.9275780        5.3137910       -2.3992440
 C        3.3663700        3.4073950        0.2926110
 C        2.2833520        1.8630500        1.8263860
 C        4.5934780        3.1871380        0.9470180
 C        4.7126260        2.2882660        2.0373630
 H        5.4677610        3.7161770        0.5744290
 C        3.5214380        1.6381380        2.4545700
 H        3.5404880        0.9458280        3.2961130
 C       -2.3589190        2.1894140       -1.2494020
 C       -2.7726570        2.3272590       -2.5922100
 C       -3.2116640        1.5181450       -0.3424450
 C       -4.0152700        1.8122890       -3.0175250
 C       -4.8861410        1.1356610       -2.1260430
 H       -4.2877880        1.9390810       -4.0628000
 C       -4.4436980        1.0010150       -0.7816290
 H       -5.0622860        0.4783680       -0.0525510
 H        3.3354540        4.0729860       -0.5699750
 H        1.3892180        1.3738620        2.2082760
 C        6.0581140        2.0007960        2.7583080
 C        6.3970700        0.4803210        2.6273390
 C        7.2424290        2.8097520        2.1577740
 C        5.9339030        2.3781520        4.2700450
 H        7.3516280        0.2572810        3.1286980
 H        6.4873580        0.1888010        1.5704660
 H        5.6237710       -0.1533870        3.0827990
 H        7.4118150        2.5635980        1.0991150
 H        8.1668000        2.5695950        2.7033440
 H        7.0836230        3.8954640        2.2408370
 H        5.7016410        3.4471600        4.3905080
 H        6.8806740        2.1729350        4.7931060
 H        5.1439830        1.8042150        4.7738280
 H       -2.1142030        2.8162310       -3.3104030
 H       -2.8944590        1.3702810        0.6875800
 C       -6.2564860        0.5473850       -2.5621620
 C       -7.3961420        1.2063340       -1.7192480
 C       -6.5646420        0.7988360       -4.0652240
 C       -6.2576750       -0.9971350       -2.3206660
 H       -7.2702470        1.0245120       -0.6431150
 H       -8.3736850        0.7957790       -2.0149690
 H       -7.4218700        2.2952820       -1.8760040
 H       -7.5441560        0.3670530       -4.3173280
 H       -5.8192110        0.3273140       -4.7226630
 H       -6.6073450        1.8722830       -4.3028150
 H       -5.4674930       -1.4873590       -2.9088850
 H       -7.2246580       -1.4285680       -2.6214930
 H       -6.0936280       -1.2493920       -1.2641430
