83
M00000433_2D_DFT last geometry from G09 out file
 Ru        0.4437580       -0.0097440       -0.3541800
 C       -0.9858570       -0.8813140       -1.0506340
 Cl        0.1373860       -0.5862400        1.9709850
 Cl        1.6893690        0.0523730       -2.4526610
 H       -1.9151900       -0.4987020       -1.4752280
 H       -0.8431320       -1.9840300       -1.0846430
 C        0.0410490        1.9061750       -0.2691640
 N        0.9540860        2.7852670        0.3316690
 N       -0.9773340        2.6532020       -0.8413020
 C        0.6629020        4.2429260       -0.0174970
 C        1.8431410        2.4143250        1.4544740
 C       -0.7345490        4.1662310       -0.7632810
 H        0.5528300        4.7921760        0.9256400
 H       -0.5793810        4.5056950       -1.7939040
 C        1.3933090        2.6630420        2.7964950
 C        3.1329150        1.8290790        1.2524480
 C        2.2456910        2.3776980        3.8783490
 C        3.5275820        1.8128840        3.6987590
 H        1.9062830        2.5647390        4.8961580
 C        3.9350970        1.5323300        2.3813840
 H        4.9082640        1.0795590        2.1949490
 C       -2.0845230        2.0948560       -1.6108890
 C       -2.0763420        2.1934240       -3.0416400
 C       -3.1952580        1.4846530       -0.9429250
 C       -3.2130050        1.7703300       -3.7593470
 C       -4.3544750        1.2362110       -3.1178790
 H       -3.2243240        1.8447660       -4.8459130
 C       -4.3108210        1.0819080       -1.7153570
 H       -5.1517050        0.6324550       -1.1882190
 C       -0.8888820        2.7075440       -3.8357820
 H       -0.8964200        3.8058980       -3.9224630
 H       -0.9226530        2.3092770       -4.8579770
 H        0.0617020        2.3987980       -3.3937970
 C       -3.2576380        1.1721100        0.5457950
 H       -4.0797270        1.7201510        1.0309940
 H       -2.3295050        1.3825570        1.0761280
 H       -3.4620090        0.1011400        0.6920090
 C        1.8494880        4.9683550       -0.8250500
 C        3.1000620        5.1063630        0.0979120
 C        2.2257210        4.2335310       -2.1425130
 C        1.4748440        6.4287100       -1.2252410
 H        2.8391170        5.5685550        1.0626150
 H        3.8412810        5.7583510       -0.3876120
 H        3.5886100        4.1545570        0.3037360
 H        1.4868500        4.4188500       -2.9330220
 H        2.3182970        3.1536280       -2.0204560
 H        3.1893890        4.6133080       -2.5128730
 H        1.2837560        7.0697880       -0.3552880
 H        0.6105000        6.4790450       -1.8969510
 H        2.3266000        6.8623350       -1.7697800
 C       -5.5431580        0.8324430       -3.9572580
 C       -6.7610440        0.2031630       -3.2815870
 O       -5.5333250        1.0133300       -5.2068770
 H       -7.1961320        0.8802570       -2.5300190
 H       -7.5171280       -0.0153590       -4.0437880
 H       -6.4919680       -0.7323910       -2.7667580
 C       -1.9613580        5.0662120       -0.2247970
 C       -2.5596100        4.6183770        1.1350630
 C       -1.5312150        6.5545650       -0.0341640
 C       -3.1010740        5.0985760       -1.2952130
 H       -2.7697570        3.5513040        1.1724370
 H       -3.5079260        5.1506350        1.3022340
 H       -1.9005300        4.8712030        1.9722220
 H       -2.3879160        7.1064810        0.3797530
 H       -1.2596110        7.0410960       -0.9779170
 H       -0.7022910        6.6727720        0.6734250
 H       -3.6554970        4.1592420       -1.3605540
 H       -2.7130190        5.3376910       -2.2966090
 H       -3.8222140        5.8860250       -1.0300640
 C        0.0111340        3.1831130        3.1365090
 H       -0.7452750        2.8108950        2.4443540
 H       -0.0248360        4.2836270        3.1319510
 H       -0.2726710        2.8580390        4.1452310
 C        3.7637080        1.4985840       -0.0895640
 H        4.6936600        2.0726010       -0.2274430
 H        3.1181880        1.6891520       -0.9408540
 H        4.0382830        0.4347260       -0.1318940
 C        4.3790510        1.5239580        4.9104440
 C        5.7027740        0.7803600        4.7364470
 O        4.0011190        1.8886490        6.0591240
 H        6.3977800        1.3473130        4.0971990
 H        6.1632460        0.6373090        5.7203290
 H        5.5467630       -0.2020710        4.2647040
