74
M00000429_2D_DFT last geometry from G09 out file
 Ru        0.1044610       -0.0253060       -0.1073060
 C        0.8812320       -0.3152810        1.5093490
 Cl        1.9778760        0.0983440       -1.6284880
 Cl       -2.0739710       -0.9053240        0.3916680
 H        0.9861800        0.3854470        2.3432040
 H        1.2466810       -1.3477670        1.6877740
 C       -0.1467670        1.8921560       -0.1218300
 N        0.4486630        2.8859470        0.6466320
 N       -0.9093720        2.5330160       -1.1064670
 C       -0.0086650        4.2490230        0.2427200
 C        1.5371710        2.7909450        1.5938810
 C       -0.5846120        4.0422950       -1.1821700
 H        0.8416160        4.9378680        0.2552150
 H       -0.7721300        4.6235570        0.9410830
 C        0.4934190        4.2947340       -2.2826390
 C       -1.8283580        4.9279080       -1.4477590
 C        0.8545340        5.7927330       -2.4487750
 H        1.3941530        3.7045820       -2.0596930
 H        0.1024920        3.9253060       -3.2375610
 C       -0.4006380        6.6624660       -2.6864610
 H        1.3946600        6.1635630       -1.5611700
 H        1.5547960        5.8943510       -3.2936430
 C       -1.4568970        6.4275440       -1.5830360
 H       -0.8386030        6.4158870       -3.6692690
 H       -0.1229070        7.7281730       -2.7232020
 H       -2.3736050        6.9969710       -1.8061010
 H       -1.0792790        6.8155680       -0.6214340
 H       -2.5684720        4.7990280       -0.6449720
 H       -2.3120790        4.6028660       -2.3806080
 C        1.3308440        3.0760320        2.9775520
 C        2.8318750        2.4968840        1.1012820
 C        2.4697610        3.0716570        3.8181980
 C        3.7582250        2.7845010        3.3256000
 H        2.3479920        3.2946300        4.8760590
 C        3.9418410        2.4792680        1.9591640
 H        4.9302230        2.2470190        1.5663870
 C       -2.1192550        1.9766410       -1.7047680
 C       -2.1956520        1.4679280       -3.0362310
 C       -3.2844620        2.0177150       -0.8954470
 C       -3.4724570        1.0566180       -3.4989590
 C       -4.6260530        1.1309340       -2.6993850
 H       -3.5616230        0.6720900       -4.5121040
 C       -4.5319750        1.6001280       -1.3717950
 H       -5.4077070        1.6384280       -0.7266060
 H       -3.1960570        2.3674960        0.1312800
 C       -5.9507980        0.6543100       -3.2351800
 F       -6.0485460        0.7591820       -4.6442600
 F       -7.0473590        1.3795460       -2.7054860
 F       -6.2118860       -0.7108960       -2.9317680
 C       -0.0561730        3.3558200        3.5789490
 C       -0.1742650        4.8146750        4.1078450
 C       -0.4325080        2.3344710        4.6905240
 H       -0.7983730        3.2272380        2.7793760
 H        0.5062660        4.9938890        4.9530960
 H       -1.1989950        5.0088930        4.4592680
 H        0.0637900        5.5533900        3.3280620
 H       -1.4537610        2.5336810        5.0488060
 H        0.2411940        2.3977090        5.5572630
 H       -0.4079400        1.3018320        4.3141310
 H        2.9559820        2.2586320        0.0479400
 C        4.9288930        2.7455630        4.2728590
 F        4.7953880        3.6524600        5.3530760
 F        6.1582420        3.0485240        3.6447860
 F        5.1055830        1.4630720        4.8704450
 C       -0.9954590        1.3075340       -3.9813630
 C       -1.1269630        2.1998470       -5.2501490
 C       -0.7861200       -0.1786410       -4.3940730
 H       -0.0936890        1.6144280       -3.4399850
 H       -1.9652840        1.8792630       -5.8859390
 H       -0.2086810        2.1299660       -5.8527480
 H       -1.2892680        3.2585190       -4.9998280
 H        0.1400390       -0.2726010       -4.9797300
 H       -1.6152210       -0.5541040       -5.0116250
 H       -0.6912910       -0.8320730       -3.5174600
