89
Mol_000089_2D_DFT last geometry from G09 out file
 Ru        0.3085060       -0.4455710       -0.1624350
 C       -0.6518430       -1.2094710       -1.4987130
 Cl       -1.0126550       -0.9999830        1.7906470
 Cl        2.4100050       -0.4688930       -1.3796220
 H       -1.1981030       -0.7258080       -2.3121750
 H       -0.5901520       -2.3184240       -1.5397170
 C       -0.2242380        1.4430190       -0.1772690
 N        0.4797390        2.3805050        0.5691370
 N       -1.2801250        2.0940670       -0.7905390
 C        1.6536990        2.0328520        1.3597810
 C        0.0877610        3.8271350        0.1580670
 C        2.9053280        1.9829220        0.6989700
 C        1.6159290        1.7030550        2.7576240
 C        4.0982810        1.6760900        1.3729880
 C        4.0892220        1.3657480        2.7506610
 H        5.0318730        1.6463000        0.8088490
 C        2.8377020        1.3662820        3.4026410
 H        2.8125360        1.1068630        4.4595130
 C       -1.4519620        3.5425140       -0.2334000
 C       -2.3286200        1.4152490       -1.5198940
 C       -3.2754410        0.6761340       -0.7696180
 C       -2.4783440        1.4715960       -2.9452210
 C       -4.3616840        0.0267800       -1.3791600
 C       -4.5571090        0.1005100       -2.7790080
 H       -5.0563370       -0.5425430       -0.7585820
 C       -3.6059140        0.8262280       -3.5273570
 H       -3.7320150        0.8676370       -4.6075480
 C       -5.7337760       -0.5911090       -3.4458290
 H       -5.7514740       -0.4153640       -4.5298500
 H       -6.6911960       -0.2362860       -3.0324640
 H       -5.6983670       -1.6803290       -3.2839630
 C        1.0237330        4.1920770       -1.0625340
 C        1.0354730        5.6219700       -1.6796700
 H        0.8591620        3.4615370       -1.8628820
 H        2.0430190        4.0222360       -0.6967160
 C        2.3113740        5.8473090       -2.5270080
 H        0.9853090        6.3964750       -0.9003620
 H        0.1666640        5.7813990       -2.3299090
 H        2.3951490        5.0924590       -3.3245060
 H        2.2983760        6.8405620       -3.0037960
 H        3.2225510        5.7843150       -1.9107020
 C        0.2304760        4.8560960        1.3187320
 C        1.6369560        5.3677430        1.7346780
 H       -0.2369850        4.4306380        2.2076510
 H       -0.3628130        5.7368120        1.0295530
 C        1.5265090        6.4444220        2.8407600
 H        2.1807420        5.7970310        0.8821670
 H        2.2526850        4.5426100        2.1130920
 H        0.9554380        7.3216780        2.4949770
 H        1.0208950        6.0485280        3.7356440
 H        2.5242800        6.7961400        3.1475450
 C       -1.9875780        4.5484960       -1.2998690
 C       -3.5029210        4.5967080       -1.6415570
 H       -1.4331610        4.3989850       -2.2308230
 H       -1.7143840        5.5512820       -0.9402820
 C       -3.8038860        5.6971130       -2.6874250
 H       -4.1002930        4.8022870       -0.7443350
 H       -3.8538550        3.6336740       -2.0304840
 H       -4.8786910        5.7277180       -2.9261440
 H       -3.5173100        6.6943960       -2.3162590
 H       -3.2572100        5.5252960       -3.6286430
 C       -2.4495090        3.4104760        0.9817180
 C       -2.9594210        4.6619100        1.7560840
 H       -2.0204290        2.7141510        1.7081930
 H       -3.3410790        2.9223770        0.5671180
 C       -4.2595110        4.3422940        2.5322970
 H       -3.1453490        5.5114660        1.0823850
 H       -2.2096980        4.9984480        2.4805980
 H       -5.0818720        4.0625610        1.8538160
 H       -4.1028680        3.5074310        3.2329440
 H       -4.5914650        5.2132570        3.1197820
 H        2.9361270        2.1402540       -0.3727470
 C        0.3835930        1.7206710        3.6422080
 C        0.2853330        0.7019240        4.7805850
 O       -0.5274300        2.5784070        3.5024850
 H        0.8423400        1.0592780        5.6628380
 H       -0.7684610        0.6092550        5.0662050
 H        0.6741760       -0.2814150        4.4936980
 C        5.3682270        1.0093550        3.4876600
 H        5.8047380        0.0787720        3.0903240
 H        5.1946950        0.8636800        4.5623710
 H        6.1295510        1.7967920        3.3724300
 H       -3.1293070        0.5838070        0.3027480
 C       -1.4713170        2.1034720       -3.8820750
 C       -1.9276520        2.5376030       -5.2825720
 O       -0.2633820        2.2544690       -3.5605570
 H       -1.1634630        3.2036640       -5.7000610
 H       -2.0084720        1.6652730       -5.9511700
 H       -2.9008210        3.0473740       -5.2739090
