109
Mol_000090_2D_DFT last geometry from G09 out file
 Ru       -0.0951140       -0.9665910        0.1264960
 C       -1.3287530       -1.8895060       -0.8344040
 Cl       -1.0048560       -1.1824980        2.3681070
 Cl        1.6988830       -1.2093840       -1.4829840
 H       -2.0989580       -1.5162720       -1.5124260
 H       -1.2342910       -2.9944620       -0.7547440
 C       -0.5705310        0.9162910       -0.0924310
 N        0.3153640        1.9134630        0.3025790
 N       -1.7557320        1.5210870       -0.4822300
 C        1.4805170        1.6352560        1.1434860
 C       -0.2280900        3.3293320       -0.0309700
 C        2.8224910        1.5672880        0.6602570
 C        1.2389600        1.4358460        2.5282810
 C        3.8463360        1.2938330        1.6052580
 C        3.6165830        1.0936360        2.9836430
 H        4.8705920        1.2259600        1.2321180
 C        2.2764190        1.1690450        3.4335250
 H        2.0288960        1.0033320        4.4820540
 C       -1.8068810        3.0007780       -0.0010270
 C       -2.7235340        0.9290180       -1.3903720
 C       -3.9179650        0.2746470       -0.9667710
 C       -2.4413860        1.0126520       -2.7782600
 C       -4.7944470       -0.2121550       -1.9734490
 C       -4.5410950       -0.1027480       -3.3587900
 H       -5.7094350       -0.7126350       -1.6482570
 C       -3.3243900        0.5112650       -3.7478540
 H       -3.0565400        0.5960870       -4.8013920
 C       -5.5440000       -0.6504850       -4.3828200
 C       -4.9417130       -1.8026250       -5.2350100
 C       -6.1249910        0.4742470       -5.2853670
 H       -6.3889160       -1.0770250       -3.8159820
 H       -4.1036320       -1.4535570       -5.8564760
 H       -5.7059720       -2.2210720       -5.9082490
 H       -4.5692120       -2.6164550       -4.5949760
 H       -5.3451230        0.9368770       -5.9086720
 H       -6.5889420        1.2685470       -4.6809290
 H       -6.8938130        0.0659120       -5.9596050
 C        0.3436880        3.6872590       -1.4574210
 C        0.1475290        5.0981110       -2.0886570
 H        1.4221100        3.5325100       -1.3748970
 H       -0.0053430        2.9277860       -2.1706980
 C        1.1819480        5.3620510       -3.2142350
 H       -0.8553940        5.2073510       -2.5200440
 H        0.2439060        5.8902820       -1.3317870
 C        0.9794680        6.7192980       -3.9235960
 H        1.1243740        4.5498640       -3.9602100
 H        2.2020710        5.3203500       -2.7942580
 H        1.7337480        6.8715040       -4.7114660
 H        1.0633900        7.5585010       -3.2142350
 H       -0.0139450        6.7800680       -4.3965120
 C        0.1780170        4.3937440        1.0347090
 C        1.6204690        4.9674890        1.0600610
 H       -0.5084850        5.2431980        0.9040010
 H       -0.0259780        3.9838170        2.0295990
 C        1.7743320        6.0514780        2.1578280
 H        2.3493160        4.1725860        1.2540420
 H        1.8879270        5.4147740        0.0926490
 C        3.1985120        6.6456650        2.2286170
 H        1.5154210        5.6166170        3.1391800
 H        1.0491670        6.8657300        1.9783110
 H        3.2721710        7.4094120        3.0187870
 H        3.4820270        7.1219830        1.2761590
 H        3.9445050        5.8649950        2.4471470
 C       -2.6274340        3.9250280       -0.9517240
 C       -4.1795900        3.8848370       -0.9410430
 H       -2.3278550        4.9560540       -0.7135160
 H       -2.3044810        3.7426780       -1.9822000
 C       -4.7750780        4.9330650       -1.9160660
 H       -4.5438440        2.8934210       -1.2330800
 H       -4.5750790        4.0839260        0.0643910
 C       -6.3194940        4.9236730       -1.9491030
 H       -4.3909460        4.7453280       -2.9342040
 H       -4.4240380        5.9419740       -1.6336340
 H       -6.7071850        5.6787870       -2.6509600
 H       -6.7428480        5.1426170       -0.9555750
 H       -6.7047520        3.9417120       -2.2674480
 C       -2.4436390        2.9439270        1.4428840
 C       -2.8118110        4.2381660        2.2277190
 H       -3.3729050        2.3811900        1.3159500
 H       -1.8085540        2.3126960        2.0779710
 C       -3.8492530        3.9448660        3.3432180
 H       -1.9264980        4.6824730        2.6998810
 H       -3.2232050        5.0096670        1.5602540
 C       -4.1845130        5.1816340        4.2058800
 H       -3.4657670        3.1399390        3.9942700
 H       -4.7777670        3.5559550        2.8895650
 H       -4.9262790        4.9347980        4.9815920
 H       -4.6007750        5.9974960        3.5928530
 H       -3.2874280        5.5702220        4.7141670
 C        3.2474370        1.7828050       -0.7814660
 H        2.4534750        1.5428430       -1.4904090
 H        4.1011050        1.1365400       -1.0231670
 H        3.5718510        2.8245170       -0.9433390
 H        0.2146350        1.4559890        2.8887490
 C        4.7808850        0.7809480        3.9321100
 C        4.6679550       -0.6506750        4.5285190
 C        4.9319380        1.8490110        5.0509610
 H        5.7069720        0.8081010        3.3330310
 H        3.7763500       -0.7548690        5.1645330
 H        5.5509590       -0.8808140        5.1451680
 H        4.6002810       -1.4060060        3.7314900
 H        4.0558630        1.8663160        5.7164180
 H        5.0518490        2.8568200        4.6246950
 H        5.8169020        1.6331280        5.6697550
 C       -4.2931290        0.0286120        0.4847940
 H       -3.4206760        0.0023040        1.1420010
 H       -4.8114170       -0.9359310        0.5830070
 H       -4.9869960        0.7999820        0.8569410
 H       -1.5007010        1.4612960       -3.0936670
