103
Mol_000112_2D_DFT last geometry from G09 out file
 Ru        0.3258370       -0.2303390       -0.5092110
 C       -0.8967860       -1.0501800       -1.5712450
 Cl       -0.3850990       -1.1756390        1.6041660
 Cl        1.9633200        0.2569820       -2.2533680
 H       -1.8205250       -0.6664790       -2.0077360
 H       -0.6485790       -2.1109280       -1.7986330
 C       -0.2673530        1.6187730       -0.2769410
 N        0.4816350        2.4729920        0.5276800
 N       -1.2710590        2.3612930       -0.8754050
 C        1.5925170        1.9996300        1.3561840
 C        0.2458500        3.9464200        0.1093280
 C        2.8414760        1.7443660        0.7442270
 C        1.4519900        1.7813510        2.7661390
 C        3.9499560        1.2879380        1.4800310
 C        3.8518000        1.0675750        2.8716350
 H        4.8755850        1.0967050        0.9427530
 C        2.5911520        1.3245000        3.4684490
 H        2.4792160        1.1409450        4.5338440
 C       -1.3110450        3.8131840       -0.3115430
 C       -2.3802130        1.7710890       -1.6087320
 C       -3.3724470        1.0844160       -0.8694140
 C       -2.5063900        1.8461430       -3.0280220
 C       -4.5112650        0.5379030       -1.4851700
 C       -4.7122450        0.6658600       -2.8821980
 H       -5.2339350        0.0179290       -0.8609080
 C       -3.6857110        1.3148210       -3.6110800
 H       -3.7855580        1.4070590       -4.6919510
 C       -5.9710250        0.1188670       -3.6118860
 C       -6.7108080        1.2975390       -4.3238740
 C       -5.5419890       -0.9430190       -4.6757390
 C       -6.9759210       -0.5591490       -2.6381170
 H       -7.0355610        2.0550090       -3.5946510
 H       -7.6035750        0.9248510       -4.8491860
 H       -6.0716690        1.7968910       -5.0651430
 H       -5.0206290       -1.7871050       -4.1998930
 H       -4.8707490       -0.5187910       -5.4350320
 H       -6.4273220       -1.3389740       -5.1965300
 H       -6.5325010       -1.4272160       -2.1284100
 H       -7.8490170       -0.9195350       -3.2015670
 H       -7.3431070        0.1409620       -1.8731260
 C        1.2397080        4.1923020       -1.0957390
 C        1.4030860        5.5870890       -1.7534060
 H        2.2264060        3.9179450       -0.7049070
 H        1.0217540        3.4563240       -1.8789310
 H        0.5819120        5.8524650       -2.4279740
 H        2.3216010        5.5724390       -2.3619260
 H        1.5142180        6.4001140       -1.0249430
 C        0.5025170        4.9590890        1.2728940
 C        1.9607570        5.3173180        1.6599580
 H       -0.0065310        5.8943690        1.0022550
 H        0.0069050        4.5976640        2.1789180
 H        1.9302750        6.0415010        2.4899680
 H        2.5202120        5.7869230        0.8423780
 H        2.5310130        4.4492790        2.0036030
 C       -1.8147160        4.7897770       -1.4146840
 C       -1.9484270        6.2891450       -1.0497580
 H       -1.1789410        4.6995490       -2.2984330
 H       -2.8069480        4.4346140       -1.7241020
 H       -2.4276970        6.8163820       -1.8899770
 H       -0.9813660        6.7730160       -0.8765680
 H       -2.5717750        6.4598600       -0.1636720
 C       -2.2633970        3.8689300        0.9496860
 C       -3.7963720        3.9962860        0.7515250
 H       -2.0642420        2.9792110        1.5592980
 H       -1.9649950        4.7318390        1.5578710
 H       -4.2790530        3.9326710        1.7405590
 H       -4.2240480        3.2073090        0.1283020
 H       -4.0873500        4.9606840        0.3159930
 H        2.9436070        1.8698550       -0.3284970
 C        0.1120160        1.9112000        3.4935650
 C        0.1176290        2.2401150        5.0102580
 H       -0.4083970        0.9491500        3.3583350
 H       -0.5104730        2.6524950        2.9834450
 C        0.6573150        3.6373690        5.3934720
 H        0.6680320        1.4670270        5.5701630
 H       -0.9272550        2.1594530        5.3576640
 H        0.6074360        3.7887780        6.4835290
 H        1.7041160        3.7707990        5.0846020
 H        0.0635360        4.4365600        4.9213040
 C        5.0334220        0.5438490        3.7343490
 C        5.3505630        1.5684060        4.8711030
 C        4.6416420       -0.8313990        4.3663380
 C        6.3306040        0.3363410        2.9023570
 H        5.6401580        2.5438170        4.4515160
 H        6.1838030        1.2028390        5.4908820
 H        4.4889660        1.7295060        5.5336900
 H        4.4080650       -1.5689800        3.5843100
 H        3.7619520       -0.7491060        5.0193110
 H        5.4736510       -1.2235900        4.9715250
 H        7.1353800       -0.0269460        3.5583740
 H        6.6774170        1.2731390        2.4412020
 H        6.1922720       -0.4101610        2.1066250
 H       -3.2344230        0.9612550        0.2034350
 C       -1.4349980        2.4239830       -3.9515090
 C       -0.8732340        1.4182830       -4.9985650
 H       -0.5917770        2.7894860       -3.3584190
 H       -1.8504760        3.2912200       -4.4951600
 C        0.2028820        2.0568960       -5.9034270
 H       -1.6903990        1.0294400       -5.6275480
 H       -0.4349230        0.5584720       -4.4718300
 H       -0.1953920        2.9203990       -6.4616890
 H        1.0646810        2.4000410       -5.3108270
 H        0.5780430        1.3266780       -6.6371970
