71
Mol_000108_2D_DFT last geometry from G09 out file
 Ru        0.1565610       -0.1860730        0.1846070
 C       -0.9390970       -1.0660770       -0.9650780
 Cl       -1.0721740       -0.2505080        2.2676850
 Cl        2.1622330       -0.3952980       -1.1632990
 H       -1.5487230       -0.6777540       -1.7848050
 H       -0.9127770       -2.1719330       -0.8540960
 C       -0.2098650        1.7005760       -0.1088040
 N        0.6535550        2.6633980        0.3929040
 N       -1.2604730        2.3665170       -0.7162390
 C        1.7411640        2.3671310        1.3067640
 C        0.3292080        4.0633730       -0.1605770
 C        3.0600220        2.1513630        0.8428990
 C        1.4807540        2.3092350        2.6992510
 C        4.0991600        1.8950110        1.7558480
 C        3.8512630        1.8533080        3.1518190
 H        5.0991020        1.7157600        1.3641490
 C        2.5223290        2.0586830        3.6069860
 H        2.3238690        2.0095880        4.6767810
 C       -1.2595160        3.8732470       -0.3451800
 C       -2.3700430        1.7241620       -1.3774090
 C       -3.4198250        1.1350290       -0.6327910
 C       -2.4155800        1.6785900       -2.7927670
 C       -4.5092950        0.5387860       -1.2952710
 C       -4.5768930        0.5121510       -2.7125570
 H       -5.2981350        0.0883610       -0.6945560
 C       -3.5058840        1.0854300       -3.4497780
 H       -3.5462840        1.0481710       -4.5377750
 C       -5.7279380       -0.1088720       -3.4702670
 C       -6.8647930       -0.7716790       -2.6952600
 O       -5.7478160       -0.0794010       -4.7322540
 H       -7.3661870       -0.0526150       -2.0286750
 H       -7.5979430       -1.1669820       -3.4068920
 H       -6.4925050       -1.5973880       -2.0690570
 C        1.1473800        4.1714510       -1.5083730
 C        1.1969220        5.4975150       -2.3136960
 H        2.1811410        3.9265180       -1.2324520
 H        0.8230550        3.3588510       -2.1745020
 H        1.3520940        6.3805870       -1.6811580
 H        0.2982620        5.6750380       -2.9145630
 H        2.0455480        5.4482780       -3.0143840
 C        0.6826280        5.2093800        0.8369270
 C        2.1562190        5.6538910        1.0159010
 H        0.1084130        6.0910060        0.5173580
 H        0.2994260        4.9372400        1.8264440
 H        2.6279770        5.9775800        0.0806570
 H        2.7837090        4.8740730        1.4574030
 H        2.1750850        6.5145110        1.7035500
 C       -1.8498380        4.7780570       -1.4711970
 C       -3.3857610        4.8861240       -1.6516080
 H       -1.4720320        5.7939680       -1.2863500
 H       -1.4202360        4.4650020       -2.4294780
 H       -3.5871700        5.5827180       -2.4812350
 H       -3.8951440        5.2844070       -0.7664460
 H       -3.8566450        3.9329480       -1.9098950
 C       -2.1048120        3.9679280        0.9859440
 C       -2.4397510        5.3419020        1.6285780
 H       -3.0629210        3.4886680        0.7468310
 H       -1.6346050        3.3250920        1.7427510
 H       -2.7086670        6.1108080        0.8936950
 H       -1.6244870        5.7422370        2.2410270
 H       -3.3068690        5.2139620        2.2957180
 H        3.2636710        2.1417190       -0.2232780
 H        0.4629950        2.4349840        3.0614140
 C        4.9356370        1.5886170        4.1705240
 C        6.3433020        1.2384350        3.6913490
 O        4.6801450        1.6538830        5.4051410
 H        6.7811630        2.0616900        3.1050680
 H        6.9792000        1.0477780        4.5629220
 H        6.3341190        0.3443510        3.0490380
 H       -3.3615800        1.1111130        0.4528880
 H       -1.5898480        2.0942000       -3.3690190
