91
Mol_000406_2D_DFT last geometry from G09 out file
 Ru        0.3486390        0.5815250       -0.2100520
 C       -1.1826600       -0.2442170       -0.7207380
 Cl        0.2417150        0.1206220        2.1581410
 Cl        1.3871570        0.4285620       -2.4225050
 H       -2.1203970        0.1705310       -1.0944630
 H       -1.1084310       -1.3538970       -0.6894700
 C        0.0452280        2.5232560       -0.2037710
 N        1.0356700        3.3863560        0.2841010
 N       -0.9723210        3.2845180       -0.7584410
 C        0.7923440        4.8338980       -0.1404540
 C        2.0099260        3.0605560        1.3530890
 C       -0.6473730        4.7836440       -0.8007030
 H        0.7622460        5.4394300        0.7743650
 H       -0.5395960        5.0423040       -1.8605410
 C        1.7006520        3.4368080        2.7069210
 C        3.2671240        2.4373210        1.0656350
 C        2.6956640        3.2869450        3.7006660
 C        3.9446440        2.7130870        3.4175000
 H        2.4785440        3.5979640        4.7207610
 C        4.2028350        2.2646680        2.1167520
 H        5.1542810        1.7816280        1.8873650
 C       -2.1746140        2.7436810       -1.3917610
 C       -2.2977830        2.7590020       -2.8220710
 C       -3.2458330        2.2504060       -0.5772110
 C       -3.5363390        2.3807010       -3.3937620
 C       -4.6194400        1.9647720       -2.6003930
 H       -3.6521760        2.4027590       -4.4754510
 C       -4.4594770        1.8794080       -1.2083590
 H       -5.2795030        1.5118210       -0.5884300
 C       -1.1474340        3.1714270       -3.7420840
 C       -1.0346450        2.3956470       -5.0828620
 H       -1.2417630        4.2474300       -3.9805960
 H       -0.2028950        3.0435190       -3.2066290
 C        0.2278140        2.7910550       -5.8866240
 H       -1.0046900        1.3149740       -4.8730470
 H       -1.9189140        2.5790170       -5.7149100
 C        0.3365340        2.0563960       -7.2413300
 H        1.1234600        2.5706940       -5.2832680
 H        0.2246500        3.8819670       -6.0650500
 H        1.2468600        2.3570750       -7.7838120
 H       -0.5275420        2.2766580       -7.8893200
 H        0.3792450        0.9652900       -7.0970080
 C       -3.1713350        2.0219200        0.9261790
 H       -3.9400290        2.6081640        1.4525920
 H       -2.1956710        2.2456350        1.3557980
 H       -3.3737750        0.9637330        1.1494090
 C        1.9638610        5.4557950       -1.0548140
 C        3.2414230        5.6759100       -0.1854180
 C        2.2903470        4.5792380       -2.2957500
 C        1.6019190        6.8690700       -1.6082970
 H        3.9920700        6.2270090       -0.7717250
 H        3.7030360        4.7473410        0.1502510
 H        3.0156490        6.2791970        0.7078890
 H        1.5121970        4.6674730       -3.0646450
 H        2.4043660        3.5233310       -2.0551400
 H        3.2299920        4.9260250       -2.7509470
 H        2.4382770        7.2122330       -2.2354220
 H        1.4644920        7.6130360       -0.8145460
 H        0.7096420        6.8618540       -2.2450330
 H       -5.5673100        1.6876450       -3.0647770
 C       -1.7847490        5.7916520       -0.2560000
 C       -2.3203360        5.4665860        1.1617640
 C       -1.2581540        7.2598670       -0.1857470
 C       -2.9847730        5.8318810       -1.2573530
 H       -2.6298330        4.4289800        1.2648260
 H       -3.1984520        6.0971200        1.3679600
 H       -1.5786750        5.6874260        1.9364250
 H       -2.0559820        7.8867470        0.2392750
 H       -1.0156770        7.6707430       -1.1721330
 H       -0.3832720        7.3692620        0.4659480
 H       -3.5914630        4.9234360       -1.2374410
 H       -2.6449410        5.9942790       -2.2912460
 H       -3.6435600        6.6733980       -0.9951730
 C        0.3347420        3.9657580        3.1468260
 C       -0.1980760        3.3699820        4.4816600
 H        0.3816240        5.0652850        3.2551640
 H       -0.3987970        3.7556880        2.3661310
 C       -1.6297150        3.8405280        4.8370830
 H       -0.1792040        2.2724840        4.4114640
 H        0.4650470        3.6480600        5.3157440
 C       -2.1272640        3.2749880        6.1861910
 H       -2.3280890        3.5334850        4.0405910
 H       -1.6612850        4.9446730        4.8729340
 H       -1.4803570        3.5965480        7.0182940
 H       -2.1345950        2.1736430        6.1754440
 H       -3.1511600        3.6159410        6.4077260
 C        3.7367950        1.9511620       -0.2951340
 H        4.4862820        2.6386030       -0.7188780
 H        2.9442050        1.8319580       -1.0293710
 H        4.2267880        0.9722630       -0.1922450
 H        4.6921680        2.5972580        4.2038810
