107
Mol_000327_2D_DFT last geometry from G09 out file
 Ru        0.5727000        0.2278210       -1.3386750
 C       -1.0233930       -0.6766690       -1.5791570
 Cl        0.9058060       -1.0888820        0.7438390
 Cl        0.5577220        0.8832350       -3.7204380
 H       -1.6013470       -1.1456030       -0.7668000
 H       -1.3914040       -0.9014250       -2.5972770
 C       -0.1379670        1.8172250       -0.5132570
 N        0.7863670        2.7540130       -0.0211190
 N       -1.4013380        2.3690320       -0.4408580
 C        1.9661850        2.3581430        0.7250800
 C        0.1787390        4.1718280       -0.2084900
 C        3.0021680        1.5219820        0.1942240
 C        2.0684350        2.7222970        2.0903400
 C        4.1006090        1.1822850        1.0146080
 C        4.2191460        1.5916630        2.3605880
 H        4.8870320        0.5535250        0.6019610
 C        3.1682680        2.3703920        2.8897700
 H        3.1873990        2.6808500        3.9360840
 C       -1.3597100        3.8179910        0.1433200
 C       -2.5858070        1.7723040       -1.0391300
 C       -3.6444930        1.1429910       -0.2838940
 C       -2.7305050        1.8977540       -2.4420630
 C       -4.7975980        0.7244760       -1.0119320
 C       -4.9455980        0.8791450       -2.4068960
 H       -5.6024880        0.2342120       -0.4675060
 C       -3.8801180        1.4696110       -3.1248140
 H       -3.9395740        1.5925050       -4.2069800
 C       -6.1883280        0.3618930       -3.1216140
 C       -6.0343070       -1.0958260       -3.6490050
 H       -6.4246920        1.0174510       -3.9760320
 H       -7.0570770        0.3992990       -2.4439080
 C       -7.2928000       -1.6061890       -4.3840590
 H       -5.8039990       -1.7633210       -2.8019370
 H       -5.1658070       -1.1443830       -4.3262600
 H       -7.5274720       -0.9790580       -5.2592210
 H       -7.1483750       -2.6378440       -4.7413380
 H       -8.1743000       -1.6013630       -3.7226400
 C        0.4350930        4.5106340       -1.7368260
 C        0.1356930        5.9161830       -2.3343460
 H       -0.0589280        3.7535290       -2.3569130
 H        1.5079350        4.3411060       -1.8812740
 C        0.7898320        6.0707170       -3.7295330
 H        0.5097420        6.7177820       -1.6810200
 H       -0.9422330        6.0865870       -2.4426920
 H        0.4412670        5.2898030       -4.4232890
 H        0.5441240        7.0488310       -4.1725710
 H        1.8875170        5.9957570       -3.6718800
 C        0.7969590        5.2898110        0.6789240
 C        2.2576000        5.7435390        0.4051850
 H        0.7324330        5.0181880        1.7334060
 H        0.1467960        6.1700830        0.5603450
 C        2.6957640        6.8536310        1.3888780
 H        2.3650690        6.1234270       -0.6195600
 H        2.9476840        4.8955950        0.5001290
 H        2.6689770        6.5013650        2.4322750
 H        3.7256150        7.1800100        1.1759910
 H        2.0437680        7.7395190        1.3167680
 C       -2.3606530        4.7737740       -0.5794530
 C       -3.8802450        4.7187660       -0.2633850
 H       -2.2527330        4.6391720       -1.6608190
 H       -2.0205170        5.7970070       -0.3593620
 C       -4.6365740        5.8642150       -0.9773670
 H       -4.0674780        4.7933070        0.8159370
 H       -4.3045130        3.7637290       -0.5890560
 H       -4.5137220        5.8064840       -2.0706940
 H       -5.7155870        5.8133080       -0.7626680
 H       -4.2780060        6.8545150       -0.6514910
 C       -1.6755870        3.6888880        1.6797990
 C       -1.8906480        4.9509850        2.5652660
 H       -0.9017180        3.0595810        2.1396320
 H       -2.5951840        3.0956540        1.7296740
 C       -2.5238600        4.5767750        3.9275900
 H       -2.5436910        5.6788470        2.0637240
 H       -0.9477870        5.4772320        2.7616120
 H       -3.5170770        4.1186130        3.7970750
 H       -1.8958740        3.8581260        4.4784280
 H       -2.6468570        5.4678740        4.5634560
 N        2.9036160        0.9843230       -1.1696440
 C        3.3795290        1.9813720       -2.1904000
 C        3.6224240       -0.3153840       -1.4021080
 H        3.1502200        1.6067360       -3.1921550
 H        4.4671950        2.1489700       -2.0849170
 H        2.8597180        2.9284030       -2.0537410
 H        3.3431160       -1.0369450       -0.6283980
 H        4.7203160       -0.1947440       -1.4248590
 H        3.3112580       -0.6961250       -2.3848380
 H        1.2515530        3.2642230        2.5535480
 C        5.3978950        1.1485920        3.2165550
 C        5.1562300       -0.2111710        3.9376370
 H        5.6161360        1.9154080        3.9780850
 H        6.3026990        1.0575970        2.5928940
 C        6.3580550       -0.6568100        4.7985560
 H        4.9311870       -0.9842990        3.1849360
 H        4.2568310       -0.1292360        4.5698980
 H        6.5851730        0.0811450        5.5850130
 H        6.1517210       -1.6192210        5.2924370
 H        7.2656510       -0.7832570        4.1863320
 N       -3.6208210        0.9870730        1.1315840
 C       -4.8984700        0.8511580        1.8516490
 C       -2.5240600        0.2343090        1.7822500
 H       -5.3317790       -0.1692960        1.8037040
 H       -5.6399060        1.5628260        1.4659350
 H       -4.7249150        1.0812920        2.9138880
 H       -2.3936750        0.5865610        2.8167470
 H       -1.5797680        0.3589530        1.2582580
 H       -2.7468330       -0.8497810        1.8178440
 H       -1.9079660        2.3302140       -3.0051030
