83
Mol_000330_2D_DFT last geometry from G09 out file
 Ru        0.1537280       -0.1744490       -0.4658980
 C       -1.4254470       -1.0500080       -0.6615920
 Cl        0.6749310       -0.8987080        1.7862170
 Cl        0.8373580       -0.0676530       -2.7732300
 H       -2.4455630       -0.6649250       -0.5976220
 H       -1.3238780       -2.1370940       -0.8679800
 C       -0.2735790        1.7220480       -0.2379050
 N        0.7155670        2.6297770        0.1433860
 N       -1.4237630        2.4393150       -0.5341060
 C        1.8373660        2.3139690        1.0065150
 C        0.3520360        4.0657720       -0.3171470
 C        3.1919380        2.0481440        0.6079990
 C        1.6050940        2.3053210        2.4089210
 C        4.1732280        1.8128190        1.6076170
 C        3.8990110        1.8155630        2.9909080
 H        5.1916100        1.6057020        1.2791620
 C        2.5701820        2.0743850        3.3890030
 H        2.2715260        2.0748120        4.4364840
 C       -1.2632090        3.9667520       -0.2722410
 C       -2.6065930        1.8710210       -1.1379690
 C       -3.8005660        1.4697730       -0.4226750
 C       -2.6478690        1.7513770       -2.5484610
 C       -4.9095020        0.9981710       -1.1943890
 C       -4.9002100        0.8942690       -2.5995240
 H       -5.7996630        0.6656350       -0.6666420
 C       -3.7310220        1.2770500       -3.2930840
 H       -3.6493340        1.2179710       -4.3770480
 C       -6.1072470        0.3653770       -3.3561490
 H       -5.8390570       -0.5065500       -3.9731990
 H       -6.5141860        1.1295960       -4.0378830
 H       -6.9133890        0.0607500       -2.6754410
 C        0.9726430        4.1733230       -1.7647860
 C        1.0367980        5.5314350       -2.5130230
 H        1.9931310        3.7937580       -1.6574450
 H        0.4736790        3.4380440       -2.4068990
 H        1.3841900        6.3628910       -1.8858100
 H        0.0794830        5.8294690       -2.9557540
 H        1.7534540        5.4327090       -3.3444880
 C        0.8650930        5.1830760        0.6424960
 C        2.3636940        5.5676510        0.6962700
 H        0.3123560        6.0891520        0.3577170
 H        0.5488300        4.9428320        1.6625670
 H        2.7824230        5.8065110       -0.2876780
 H        2.9843240        4.7917480        1.1536590
 H        2.4641020        6.4711030        1.3197390
 C       -1.9210160        4.8483820       -1.3842160
 C       -3.4600360        5.0311450       -1.4288290
 H       -1.4837630        5.8498470       -1.2645580
 H       -1.5949110        4.4885740       -2.3636560
 H       -3.9948110        4.1053200       -1.6584660
 H       -3.6964020        5.7504870       -2.2300420
 H       -3.8741540        5.4365760       -0.4980100
 C       -1.9379940        4.2444970        1.1253640
 C       -2.1251360        5.6945890        1.6537140
 H       -2.9344580        3.7987590        1.0429740
 H       -1.4150420        3.6602980        1.8871310
 H       -2.4284420        6.4092060        0.8781280
 H       -1.2296750        6.0968900        2.1410870
 H       -2.9236430        5.6870950        2.4136430
 N        3.5953460        1.9943040       -0.7891300
 C        4.6095640        2.9974000       -1.1948400
 C        3.9769230        0.6328630       -1.2493720
 H        4.6696370        3.0060540       -2.2937490
 H        5.6302660        2.7874170       -0.8066350
 H        4.3197680        3.9979560       -0.8592090
 H        3.2388920       -0.1032540       -0.9207890
 H        4.9754930        0.3152500       -0.8780000
 H        3.9897790        0.6189280       -2.3470070
 F        0.2989510        2.5491350        2.8773100
 C        4.9752410        1.5106010        4.0173810
 H        5.9827590        1.6500380        3.6021920
 H        4.9001670        0.4647810        4.3590170
 H        4.8810340        2.1504930        4.9071990
 N       -3.9516000        1.5708830        0.9826510
 C       -5.3048170        1.6866300        1.5517540
 C       -2.9867970        0.9711440        1.9305480
 H       -5.2213260        2.1309760        2.5549720
 H       -5.8237230        0.7130610        1.6653180
 H       -5.9308650        2.3479250        0.9390950
 H       -1.9956000        0.8777950        1.4966200
 H       -3.3159460       -0.0403990        2.2380790
 H       -2.9086480        1.5929030        2.8343490
 F       -1.5374110        2.1935670       -3.2842120
