93
Mol_000328_2D_DFT last geometry from G09 out file
 Ru        0.0958310       -0.2001950       -0.4793990
 C       -1.5184190       -1.0203200       -0.5996510
 Cl        0.6548820       -0.9280380        1.7660360
 Cl        0.6026470        0.0000820       -2.8481340
 H       -2.5181730       -0.5919470       -0.4949730
 H       -1.4694530       -2.1116780       -0.8076470
 C       -0.2618380        1.7061990       -0.2396480
 N        0.7815320        2.5831340        0.0468870
 N       -1.4093370        2.4436440       -0.4752760
 C        1.9293430        2.2703320        0.8888140
 C        0.4319180        4.0071320       -0.4475690
 C        3.2475990        1.9303880        0.4458750
 C        1.7241520        2.3608630        2.2904130
 C        4.2656040        1.7252790        1.4079270
 C        4.0580190        1.8339190        2.8131160
 H        5.2466720        1.4490180        1.0313430
 C        2.7340060        2.1586240        3.2348840
 H        2.4787170        2.2265630        4.2893430
 C       -1.1718850        3.9645230       -0.2540240
 C       -2.6303360        1.9109360       -1.0512750
 C       -3.8384230        1.6460860       -0.3113970
 C       -2.6424860        1.6756040       -2.4445650
 C       -4.9827460        1.2103140       -1.0329670
 C       -4.9982000        1.0175270       -2.4458200
 H       -5.8747450        0.9776990       -0.4628490
 C       -3.7755260        1.2438210       -3.1454560
 H       -3.6947070        1.0864200       -4.2173490
 N       -6.1592450        0.6002380       -3.1130490
 C       -7.4020630        0.3570260       -2.3712800
 C       -6.1111680        0.2943890       -4.5500030
 H       -7.7137110        1.2482540       -1.8004840
 H       -7.3130730       -0.4878910       -1.6629620
 H       -8.2082120        0.1186830       -3.0750510
 H       -7.0990880       -0.0413700       -4.8863560
 H       -5.3865540       -0.5070700       -4.7783950
 H       -5.8374050        1.1808240       -5.1477110
 C        0.9234640        4.0266590       -1.9481500
 C        0.9701740        5.3449990       -2.7649020
 H        1.9347460        3.6074420       -1.9141020
 H        0.3430210        3.2825640       -2.5091950
 H        1.4406660        6.1758080       -2.2233390
 H       -0.0159330        5.6872040       -3.1000400
 H        1.5723620        5.1684720       -3.6711700
 C        1.0695750        5.1487220        0.4010510
 C        2.5818640        5.4644070        0.3065690
 H        0.5271720        6.0638020        0.1223900
 H        0.8449490        4.9686440        1.4572640
 H        2.9267450        5.6256320       -0.7209830
 H        3.1983760        4.6820610        0.7573250
 H        2.7756660        6.3953550        0.8645340
 C       -1.9022530        4.8487610       -1.3142910
 C       -3.4344740        5.0676780       -1.2381650
 H       -1.4266510        5.8387060       -1.2568470
 H       -1.6759650        4.4578590       -2.3122790
 H       -3.9975820        4.1638780       -1.4845850
 H       -3.7104100        5.8387240       -1.9764820
 H       -3.7742480        5.4212290       -0.2574240
 C       -1.6832720        4.2736840        1.2051680
 C       -1.8030150        5.7321200        1.7266560
 H       -2.6805210        3.8236370        1.2494920
 H       -1.0738930        3.6964730        1.9138830
 H       -2.2535390        6.4151290        0.9955920
 H       -0.8467560        6.1678000        2.0375970
 H       -2.4588580        5.7324350        2.6130240
 N        3.5831900        1.7527650       -0.9631510
 C        4.6168800        2.6668390       -1.4986650
 C        3.8620220        0.3443550       -1.3406760
 H        5.6494730        2.4365420       -1.1520820
 H        4.3938740        3.7028700       -1.2243710
 H        4.6156260        2.5926570       -2.5973950
 H        3.1101930       -0.3215360       -0.9071890
 H        4.8635470       -0.0057270       -1.0051800
 H        3.8039450        0.2455750       -2.4328710
 H        0.7209470        2.5789550        2.6511640
 N        5.0947830        1.6239850        3.7321930
 C        4.8152350        1.6425290        5.1748870
 C        6.4284500        1.2218080        3.2669200
 H        4.4178130        2.6195020        5.4988820
 H        5.7435000        1.4630710        5.7298470
 H        4.0890450        0.8632490        5.4682930
 H        6.8591400        1.9676410        2.5773930
 H        6.4147030        0.2451560        2.7492940
 H        7.1055540        1.1369800        4.1249340
 N       -3.9491270        1.8394600        1.1021010
 C       -5.2750390        2.1069580        1.6813730
 C       -3.0753110        1.0700740        2.0153520
 H       -5.8964560        1.1974420        1.8255160
 H       -5.8336530        2.8136840        1.0542140
 H       -5.1376220        2.5649920        2.6733110
 H       -2.0846760        0.9225860        1.5892090
 H       -3.4989100        0.0702020        2.2412020
 H       -2.9644920        1.6113170        2.9676400
 H       -1.7175720        1.8273680       -2.9952850
