85
M00000521_2D_DFT last geometry from G09 out file
 Ru        1.1538360        1.2007980       -0.9139410
 C       -0.1430500        0.0885420       -1.5204520
 Cl        1.4992270        0.2520350        1.2780490
 Cl        1.8796300        1.9689270       -3.1051690
 H       -1.2103260        0.2614020       -1.6637580
 H        0.2424170       -0.9081440       -1.8292130
 C        0.3254660        2.8861780       -0.4066370
 N        1.1388020        3.9242860        0.0734130
 N       -0.9692040        3.3634640       -0.5274720
 C        0.4042150        5.2604110        0.0658970
 C        2.2449240        3.7154380        1.0281400
 C       -1.0950220        4.8418680       -0.1577930
 H        0.5258540        5.6948820        1.0652560
 H       -1.4803420        5.3471520       -1.0522650
 C        1.8571820        3.6544830        2.3933930
 C        3.6298660        3.6273950        0.6852980
 C        2.7841320        3.5586260        3.4400300
 C        4.1386400        3.5180990        3.0842320
 H        2.4736120        3.4986420        4.4816330
 C        4.5617690        3.5414620        1.7553970
 H        5.6286750        3.4970050        1.5454770
 C       -2.0205760        2.7211980       -1.3098680
 C       -2.1570730        3.1354390       -2.6566310
 C       -2.9105520        1.7433750       -0.7599840
 C       -3.1873500        2.6504010       -3.4813940
 C       -4.0767170        1.7291580       -2.9136530
 H       -3.2874650        2.9607500       -4.5199560
 C       -3.9517160        1.2677680       -1.5977760
 H       -4.6638250        0.5312090       -1.2344680
 H       -1.4310090        3.8293880       -3.0732040
 C       -2.7793650        1.2019890        0.6654830
 C       -3.1744710       -0.2825450        0.8866400
 H       -1.7453310        1.3333150        1.0015320
 H       -3.4045890        1.8152140        1.3364710
 C       -2.8598130       -0.7580240        2.3266400
 H       -4.2507310       -0.4302490        0.6970060
 H       -2.6351970       -0.9254500        0.1723520
 C       -3.2607080       -2.2277150        2.5807320
 H       -3.3855070       -0.1082290        3.0494300
 H       -1.7812310       -0.6366220        2.5201190
 H       -3.0211160       -2.5286620        3.6124930
 H       -2.7228510       -2.9093000        1.9026740
 H       -4.3410140       -2.3842480        2.4283400
 C        0.9935180        6.3293140       -0.9684480
 C        2.3978480        6.7961040       -0.4812730
 C        1.0943850        5.7679250       -2.4125340
 C        0.1100090        7.6144210       -1.0176880
 H        2.7562520        7.6188320       -1.1177330
 H        3.1413650        6.0008240       -0.5257300
 H        2.3602530        7.1717440        0.5532720
 H        0.1019320        5.6086140       -2.8586560
 H        1.6391590        4.8217820       -2.4599430
 H        1.6174370        6.4928280       -3.0540340
 H        0.5620220        8.3195880       -1.7306490
 H        0.0572830        8.1216550       -0.0455710
 H       -0.9129460        7.4219980       -1.3655460
 F       -5.1316180        1.2288230       -3.6999480
 C       -2.1318800        5.1903770        1.0121770
 C       -1.8630760        4.4083720        2.3280620
 C       -2.0717050        6.7111860        1.3609720
 C       -3.5929430        4.9345710        0.5252810
 H       -0.9978560        4.8171480        2.8668030
 H       -1.6930020        3.3421580        2.1564680
 H       -2.7281480        4.5071350        3.0004630
 H       -2.7865070        6.9108410        2.1729520
 H       -2.3566740        7.3443620        0.5112320
 H       -1.0846920        7.0309370        1.7168890
 H       -4.3008560        5.3415600        1.2626020
 H       -3.8270140        3.8764250        0.3976130
 H       -3.7901330        5.4402080       -0.4323720
 H        0.8008960        3.6560870        2.6371290
 C        4.2130870        3.6325020       -0.7269440
 C        5.0835610        2.3881960       -1.0725830
 H        3.4202600        3.7193590       -1.4740770
 H        4.8562570        4.5238630       -0.8323920
 C        5.7932840        2.5246910       -2.4404150
 H        5.8441450        2.2264940       -0.2920660
 H        4.4494520        1.4890200       -1.0797660
 C        6.6303230        1.2807070       -2.8117680
 H        6.4500090        3.4136560       -2.4228330
 H        5.0407230        2.7017350       -3.2246880
 H        7.4107540        1.0799810       -2.0597710
 H        7.1288080        1.4148530       -3.7848000
 H        5.9941790        0.3842940       -2.8836360
 F        5.1088590        3.4447210        4.1018570
