51
M00000522_2D_DFT last geometry from G09 out file
 Ru        0.0792450        0.2305150        0.5873260
 C       -0.6948070       -0.5279410       -0.8730590
 Cl       -1.6997800        0.2658560        2.2366570
 Cl        2.3819870       -0.1258970       -0.0326260
 H       -0.9974140       -0.0458050       -1.8082870
 H       -0.8128800       -1.6306420       -0.8256470
 C       -0.0231900        2.0998180        0.1111220
 N        0.9120570        3.0336010        0.5739210
 N       -0.9260120        2.7924780       -0.6823200
 C        0.8081530        4.3343810       -0.1523330
 C        1.7958180        2.8753440        1.7014490
 C       -0.6783990        4.2773450       -0.6705430
 H        0.9188340        5.1579990        0.5632160
 H       -0.7141070        4.6531960       -1.6985990
 C        1.3315740        2.2471150        2.8834890
 C        3.1140820        3.3914570        1.6591480
 C        2.1925020        2.0987970        3.9896890
 C        3.5076270        2.6052050        3.9472360
 H        1.8216610        1.6015460        4.8874660
 C        3.9561870        3.2604660        2.7795510
 H        4.9723040        3.6556210        2.7306940
 C       -2.0503200        2.2986810       -1.4478960
 C       -2.0098220        2.4031410       -2.8593990
 C       -3.2011940        1.7843770       -0.8093680
 C       -3.1157610        1.9886940       -3.6291960
 C       -4.2640100        1.4644490       -2.9952360
 H       -3.0767600        2.0684050       -4.7167470
 C       -4.2987280        1.3613310       -1.5877850
 H       -5.1812420        0.9568150       -1.0898880
 H       -1.1155640        2.7888470       -3.3507580
 H       -3.2279590        1.6988560        0.2734020
 C        1.8146470        4.4713080       -1.2812700
 C        2.4845260        3.4987830       -2.0041250
 S        2.2283530        6.1311260       -1.8989440
 C        3.3259690        4.0259590       -3.0501480
 H        2.4097190        2.4377800       -1.7788690
 C        3.3052270        5.4043320       -3.1388140
 H        3.9280610        3.3973630       -3.7037210
 H        3.8366340        6.0591690       -3.8211230
 H       -5.1194220        1.1415480       -3.5906530
 C       -1.6738060        5.0314470        0.1862890
 C       -2.1996720        4.7184880        1.4293960
 S       -2.3009610        6.6369150       -0.3845580
 C       -3.0897800        5.7201220        1.9576510
 H       -1.9765360        3.7928610        1.9547230
 C       -3.2532890        6.8105280        1.1238560
 H       -3.5899270        5.6278910        2.9199290
 H       -3.8563300        7.7007330        1.2666270
 H        0.3025520        1.9012180        2.9573220
 H        3.4921540        3.8616410        0.7552320
 H        4.1699020        2.4954330        4.8070210
