83
M00000519_2D_DFT last geometry from G09 out file
 Ru        0.0011290        0.5588170        0.5162980
 C       -1.4280680       -0.3438770       -0.1436410
 Cl       -0.6977260        0.8617480        2.8053210
 Cl        1.5775860       -0.5471320       -0.9904360
 H       -2.0727690       -0.1035950       -0.9911030
 H       -1.5854300       -1.3420350        0.3180050
 C       -0.1812130        2.4650210       -0.0316730
 N        0.8089070        3.3702820        0.3145480
 N       -1.1881420        3.1506180       -0.6806680
 C        0.4368830        4.8355350       -0.0025660
 C        1.9760410        2.8932180        1.0328340
 C       -0.8389750        4.6421200       -0.9351810
 H        0.1190930        5.2357550        0.9599250
 H       -0.5333920        4.6753240       -1.9830970
 C        2.0879970        2.9995650        2.4654720
 C        3.0275670        2.2306880        0.3110000
 C        3.1902200        2.4039180        3.1251830
 C        4.1795910        1.7348470        2.3976150
 H        3.2723790        2.4612620        4.2063380
 C        4.1156330        1.6469550        1.0071600
 H        4.8892620        1.1370190        0.4444610
 C       -2.2966620        2.4654090       -1.3097140
 C       -2.2423410        2.1349210       -2.6975130
 C       -3.4396620        2.0429260       -0.5549110
 C       -3.3263110        1.4728260       -3.3228880
 C       -4.4570960        1.1286010       -2.5722510
 H       -3.2860770        1.2404150       -4.3858920
 C       -4.5141260        1.3816100       -1.1974410
 H       -5.3724290        1.0684110       -0.6111950
 C       -1.0794610        2.4776440       -3.6365810
 C       -0.2619900        1.3182340       -4.1744280
 O       -0.8619050        3.6672470       -3.9746880
 H        0.3897100        1.6662970       -4.9841240
 H        0.3615020        0.9108940       -3.3648950
 H       -0.9000350        0.4952410       -4.5278690
 C       -3.5948910        2.2868990        0.9280220
 O       -4.3551670        1.2708100        1.5072410
 O       -3.1655880        3.2628040        1.5707090
 C       -4.6036940        1.3820930        2.9657880
 H       -5.1745580        0.4811150        3.2141240
 H       -3.6484150        1.4075860        3.5017670
 H       -5.1832670        2.2899720        3.1838520
 C        1.6042510        5.8326500       -0.5173970
 C        3.0207620        5.5218980        0.0669230
 C        1.7616140        5.8906610       -2.0654730
 C        1.2998190        7.2601900        0.0551000
 H        3.6644420        6.3911100       -0.1330180
 H        3.5029420        4.6646120       -0.4050940
 H        3.0074880        5.3779280        1.1532310
 H        0.9041650        6.3455010       -2.5708120
 H        1.9135270        4.8934020       -2.4906960
 H        2.6416500        6.5030920       -2.3155100
 H        0.3201160        7.6549330       -0.2140810
 H        2.0508690        7.9677720       -0.3262200
 H        1.3669250        7.2572980        1.1528110
 Cl       -5.8529700        0.3084470       -3.3881710
 C       -2.0205400        5.7400320       -0.7975260
 C       -2.1846880        6.3121580        0.6413650
 C       -1.7295610        6.8900520       -1.8224040
 C       -3.4300200        5.2298090       -1.2384900
 H       -1.3361240        6.9222170        0.9665160
 H       -2.3340260        5.5095110        1.3704100
 H       -3.0735920        6.9609460        0.6703560
 H       -2.5008020        7.6667660       -1.7140770
 H       -1.7788830        6.5097680       -2.8534200
 H       -0.7635470        7.3786200       -1.6945430
 H       -3.4170320        4.7401530       -2.2192500
 H       -4.0900210        6.1053530       -1.3272900
 H       -3.8819520        4.5687630       -0.4995310
 C        1.1422710        3.7799480        3.3715900
 C        0.9499030        3.3182950        4.8152540
 O        0.5896310        4.8400090        2.9830740
 H       -0.0051490        3.7204660        5.1722430
 H        0.9479670        2.2284070        4.9155630
 H        1.7443900        3.7373650        5.4558180
 C        3.0885330        2.1850230       -1.2011830
 O        4.3282960        1.7002950       -1.6262140
 O        2.2215190        2.5740000       -2.0076440
 C        4.5040370        1.5262340       -3.0834520
 H        5.5329160        1.1680220       -3.1954970
 H        3.7866580        0.7841160       -3.4580950
 H        4.3596110        2.4807920       -3.6074980
 Cl        5.5672930        0.9732810        3.2797260
