79
Mol_000239_2D_DFT last geometry from G09 out file
 Ru        0.5673610       -0.3347220       -1.0044830
 C       -0.7312000       -0.9765280       -2.0997460
 Cl       -0.0406220       -1.4832360        1.0232620
 Cl        2.1857250        0.4364300       -2.6536260
 H       -1.6802740       -0.5232200       -2.3946400
 H       -0.5250420       -1.9944210       -2.4973700
 C       -0.0040290        1.4624960       -0.5386210
 N        0.7399500        2.2038020        0.3694290
 N       -0.9941460        2.2873310       -1.0449720
 C        0.2980380        3.6283530        0.4796130
 C        1.8004160        1.6887500        1.2278550
 C       -0.9056280        3.6978320       -0.5223480
 H       -0.0521600        3.8291140        1.4957350
 H       -0.6552730        4.3547160       -1.3658950
 C        1.5723610        1.4295620        2.6121510
 C        3.0783940        1.4763480        0.6551500
 C        2.6718700        0.9471990        3.3677220
 C        3.9402730        0.7257440        2.8004010
 H        2.5151850        0.7152060        4.4225490
 C        4.1459080        0.9897790        1.4313620
 H        5.1182930        0.8173730        0.9680270
 C       -2.0877450        1.9345190       -1.9262890
 C       -2.0434980        2.2005910       -3.3257310
 C       -3.2385210        1.3574680       -1.3338280
 C       -3.1921240        1.8567130       -4.0879470
 C       -4.3367550        1.2830930       -3.5030600
 H       -3.1751580        2.0288180       -5.1657480
 C       -4.3611250        1.0280240       -2.1143570
 H       -5.2364750        0.5745920       -1.6473540
 C       -0.8282840        2.7847410       -4.0386980
 C       -1.0414610        4.2165980       -4.6101750
 H        0.0423610        2.7789780       -3.3741400
 H       -0.5654700        2.1190520       -4.8775660
 C        0.1995830        4.7494580       -5.3660770
 H       -1.9079850        4.2185370       -5.2922510
 H       -1.2951200        4.9124530       -3.7918590
 C        0.0039130        6.1698530       -5.9408660
 H        0.4493850        4.0544610       -6.1865880
 H        1.0704060        4.7465060       -4.6873710
 H       -0.2055460        6.9004680       -5.1428110
 H       -0.8369740        6.2013200       -6.6522500
 H        0.9054270        6.5087280       -6.4751100
 H       -3.2296400        1.1580360       -0.2634680
 C        1.3889830        4.6580590        0.1729390
 C        2.2423110        4.5706600       -0.9533600
 N        1.4501190        5.6983890        1.0590280
 C        3.1915180        5.5889570       -1.1694510
 H        2.1786840        3.7219580       -1.6325760
 C        3.2619470        6.6672920       -0.2607000
 H        3.8666150        5.5379040       -2.0249650
 C        2.3711260        6.6771680        0.8331350
 H        3.9856590        7.4723470       -0.3904210
 H        2.3891720        7.4883330        1.5637420
 H       -5.1965280        1.0272490       -4.1247770
 C       -2.1976070        4.2275990        0.1057160
 C       -2.9068950        5.2910670       -0.4976670
 N       -2.6139030        3.6439700        1.2683880
 C       -4.0846420        5.7684080        0.1147830
 H       -2.5481290        5.7365790       -1.4254340
 C       -4.5219040        5.1657180        1.3116980
 H       -4.6462960        6.5894000       -0.3328030
 C       -3.7526090        4.1089520        1.8473800
 H       -5.4261910        5.5011950        1.8197070
 H       -4.0524780        3.6152790        2.7737820
 C        0.2273630        1.5924700        3.3127050
 C        0.2077340        2.7101310        4.3966430
 H       -0.5742430        1.7744110        2.5887260
 H       -0.0158560        0.6334540        3.7983610
 C       -1.1239950        2.7566690        5.1831550
 H        1.0361710        2.5515770        5.1068890
 H        0.3907640        3.6904240        3.9260080
 C       -1.1653090        3.8748520        6.2486120
 H       -1.2909770        1.7802440        5.6716560
 H       -1.9578990        2.8944530        4.4749540
 H       -1.0405350        4.8682730        5.7885550
 H       -0.3616060        3.7485180        6.9918930
 H       -2.1243830        3.8737710        6.7912470
 H        3.2268270        1.6756280       -0.4017930
 H        4.7542970        0.3405280        3.4170320
