66
Mol_000241_2D_DFT last geometry from G09 out file
 Ru       -0.1835510       -0.6143680        0.6409810
 C        1.5910750       -0.8722090        0.3373780
 Cl       -1.0373530       -1.7233780       -1.3132140
 Cl       -0.4060360       -0.2696410        3.0135720
 H        2.2699340       -0.1979690       -0.1980720
 H        2.0157560       -1.8444990        0.6585250
 C       -0.2911460        1.2447150        0.1389000
 N        0.6793270        2.2447860        0.2040710
 N       -1.4566780        1.8629430       -0.3281050
 C        0.2156510        3.5227660       -0.4205790
 C        1.9807430        2.2245960        0.8034490
 C       -1.3227050        3.3500770       -0.4662830
 H        0.6430580        3.6309340       -1.4267090
 H        0.5223030        4.3780580        0.1914610
 H       -1.7100430        3.6746970       -1.4384000
 C        2.1812390        2.0358260        2.1913880
 C        3.1356030        2.5005930        0.0333010
 C        3.4685030        2.0980530        2.7537040
 C        4.6166540        2.3820190        1.9652610
 H        3.5792250        1.9018870        3.8192210
 C        4.4213210        2.5884470        0.5743220
 H        5.2502240        2.8342780       -0.0867420
 C       -2.6684790        1.2392520       -0.7943810
 C       -2.9839030        1.2496460       -2.1735080
 C       -3.6321440        0.6704450        0.0649390
 C       -4.1889180        0.7159210       -2.6551280
 C       -5.1415390        0.1339240       -1.7746340
 H       -4.3959020        0.7593640       -3.7234280
 C       -4.8350900        0.1204170       -0.3915070
 H       -5.5020230       -0.3420180        0.3337330
 H       -2.2605620        1.6666860       -2.8740640
 F       -3.3772090        0.6201150        1.4464410
 C       -2.0695960        4.1653000        0.5981030
 C       -2.2693890        3.7321550        1.9290950
 N       -2.4799650        5.3921460        0.1516990
 C       -2.9203480        4.6003820        2.8303390
 H       -1.9473420        2.7453080        2.2510580
 C       -3.3472880        5.8683990        2.3820930
 H       -3.0928830        4.2871030        3.8608830
 C       -3.1029370        6.2183200        1.0366500
 H       -3.8564950        6.5645580        3.0489600
 H       -3.4167470        7.1868640        0.6421950
 C       -6.4191100       -0.4488710       -2.2836550
 C       -7.6340790       -0.2935440       -1.5634120
 C       -6.4523150       -1.1773440       -3.5032610
 C       -8.8385630       -0.8433760       -2.0458350
 H       -7.6443360        0.2824870       -0.6372550
 C       -8.8564550       -1.5642920       -3.2597130
 H       -9.7610000       -0.7033110       -1.4794510
 C       -7.6562970       -1.7290840       -3.9849910
 H       -9.7886460       -1.9918800       -3.6327240
 H       -7.6547170       -2.2952070       -4.9181160
 H       -5.5290200       -1.3432590       -4.0590960
 H        1.3240700        1.8045750        2.8178700
 F        2.9937290        2.6948620       -1.3589240
 C        5.9807390        2.4620990        2.5687900
 C        6.1749520        3.0200870        3.8614350
 C        7.1219300        1.9825720        1.8704160
 C        7.4605340        3.0958580        4.4335290
 H        5.3233360        3.4218010        4.4112990
 C        8.5844570        2.6145710        3.7274690
 H        7.5849670        3.5366280        5.4242050
 C        8.4075380        2.0569360        2.4424940
 H        9.5798950        2.6721880        4.1708160
 H        9.2668640        1.6721140        1.8905470
 H        7.0027820        1.5206910        0.8895960
